! HF 6-31G* OPT

* xyz 0 1
N      0.0000   1.2000   0.0000
H      0.8000   1.6000   0.0000
H     -0.8000   1.6000   0.0000
C      0.0000   0.0000   0.0000
H      0.0000  -0.8000   1.0000
C      1.2000  -0.2000  -0.8000
N      2.2000  -0.4000  -1.2000
C     -1.2000  -0.2000  -0.8000
N     -2.2000  -0.4000  -1.2000
*
