9
Coordinates from ORCA-job .\amn\amn E -278.655404341382
  N          -0.00019918909495      1.49835251732121     -0.07982650661062
  H           0.81327907340500      1.82915980083250      0.40189423486171
  H          -0.81420295556567      1.82866611757350      0.40137271687877
  C           0.00007244120162      0.05142534154002     -0.14241143260480
  H           0.00047953723152     -0.44315825403507      0.82670879227884
  C           1.21210837860892     -0.41402484600043     -0.85304853081686
  N           2.16630601625512     -0.76690926561910     -1.35168763688359
  C          -1.21168888658651     -0.41486924508272     -0.85274562428161
  N          -2.16615441545505     -0.76864216652989     -1.35025601282184
