9
Coordinates from ORCA-job .\amn\amn E -278.488728497469
  N       0.000000      1.200000      0.000000
  H       0.800000      1.600000      0.000000
  H      -0.800000      1.600000      0.000000
  C       0.000000      0.000000      0.000000
  H       0.000000     -0.800000      1.000000
  C       1.200000     -0.200000     -0.800000
  N       2.200000     -0.400000     -1.200000
  C      -1.200000     -0.200000     -0.800000
  N      -2.200000     -0.400000     -1.200000
9
Coordinates from ORCA-job .\amn\amn E -278.593748892253
  N      -0.000004      1.292028      0.047054
  H       0.835868      1.725796      0.071209
  H      -0.835878      1.725789      0.071254
  C       0.000000     -0.014264     -0.013340
  H       0.000006     -0.791076      0.960017
  C       1.206060     -0.265747     -0.821533
  N       2.218047     -0.503398     -1.246555
  C      -1.206056     -0.265740     -0.821539
  N      -2.218043     -0.503387     -1.246567
9
Coordinates from ORCA-job .\amn\amn E -278.634054411034
  N      -0.000086      1.349974      0.096754
  H       0.854717      1.810715      0.151039
  H      -0.855316      1.810304      0.147710
  C       0.000488     -0.010006     -0.030944
  H      -0.000362     -0.702760      0.873912
  C       1.206512     -0.325840     -0.835336
  N       2.206630     -0.603642     -1.284891
  C      -1.206070     -0.325588     -0.834635
  N      -2.206514     -0.603158     -1.283609
9
Coordinates from ORCA-job .\amn\amn E -278.645337894337
  N      -0.000054      1.394615      0.136205
  H       0.859328      1.875151      0.224966
  H      -0.860258      1.875120      0.216403
  C       0.000952     -0.000966     -0.056457
  H      -0.000557     -0.612558      0.811908
  C       1.206728     -0.377159     -0.845721
  N       2.186570     -0.688870     -1.323005
  C      -1.206063     -0.376936     -0.844192
  N      -2.186646     -0.688396     -1.320108
9
Coordinates from ORCA-job .\amn\amn E -278.647107500221
  N      -0.000011      1.417914      0.145363
  H       0.858958      1.906546      0.256688
  H      -0.860023      1.907156      0.245016
  C       0.001076      0.009332     -0.081311
  H      -0.000349     -0.599890      0.835513
  C       1.207818     -0.396861     -0.854636
  N       2.174399     -0.723901     -1.348782
  C      -1.207168     -0.396714     -0.852731
  N      -2.174699     -0.723583     -1.345120
9
Coordinates from ORCA-job .\amn\amn E -278.647526559861
  N       0.000017      1.417260      0.142086
  H       0.856608      1.904969      0.261072
  H      -0.857398      1.906010      0.250098
  C       0.000708      0.008114     -0.086684
  H       0.000305     -0.587937      0.825698
  C       1.209501     -0.399406     -0.848489
  N       2.172597     -0.724808     -1.349928
  C      -1.209236     -0.399405     -0.846947
  N      -2.173101     -0.724797     -1.346906
9
Coordinates from ORCA-job .\amn\amn E -278.647807390647
  N      -0.000031      1.416125      0.131626
  H       0.854260      1.900524      0.263479
  H      -0.854432      1.901850      0.257623
  C      -0.000191      0.007238     -0.091704
  H       0.001423     -0.577182      0.822100
  C       1.211719     -0.400955     -0.839308
  N       2.169099     -0.723055     -1.352847
  C      -1.212165     -0.401122     -0.838914
  N      -2.169683     -0.723424     -1.352054
9
Coordinates from ORCA-job .\amn\amn E -278.648082535265
  N      -0.000251      1.417489      0.115205
  H       0.852953      1.896035      0.265878
  H      -0.851934      1.897045      0.271206
  C      -0.001496      0.008385     -0.094154
  H       0.002332     -0.566258      0.825194
  C       1.212885     -0.402631     -0.830691
  N       2.162653     -0.723106     -1.358588
  C      -1.214205     -0.403027     -0.832290
  N      -2.162936     -0.723931     -1.361760
9
Coordinates from ORCA-job .\amn\amn E -278.646895976504
  N      -0.002912      1.433658      0.042517
  H       0.846807      1.877413      0.281458
  H      -0.834307      1.879766      0.342848
  C      -0.008573      0.023481     -0.081493
  H       0.003280     -0.499520      0.867993
  C       1.213822     -0.409828     -0.775083
  N       2.072270     -0.741926     -1.434568
  C      -1.220016     -0.413416     -0.787730
  N      -2.070370     -0.749628     -1.455943
9
Coordinates from ORCA-job .\amn\amn E -278.648475163911
  N      -0.003816      1.436044      0.031932
  H       0.846729      1.873332      0.283446
  H      -0.832318      1.874715      0.352233
  C      -0.009030      0.026847     -0.083058
  H       0.002011     -0.496626      0.868544
  C       1.211418     -0.409110     -0.784049
  N       2.083567     -0.741872     -1.424112
  C      -1.217481     -0.413192     -0.797715
  N      -2.081080     -0.750140     -1.447222
9
Coordinates from ORCA-job .\amn\amn E -278.653694591324
  N      -0.010736      1.474095     -0.036278
  H       0.839797      1.853831      0.321075
  H      -0.807075      1.849783      0.429688
  C      -0.012201      0.057587     -0.096473
  H      -0.008596     -0.451496      0.872714
  C       1.197140     -0.410519     -0.819360
  N       2.100555     -0.768421     -1.400450
  C      -1.204232     -0.419888     -0.837713
  N      -2.094652     -0.784972     -1.433202
9
Coordinates from ORCA-job .\amn\amn E -278.654643532076
  N      -0.015580      1.505789     -0.080834
  H       0.828240      1.837154      0.351650
  H      -0.783397      1.829439      0.476544
  C      -0.012498      0.073914     -0.119032
  H      -0.016792     -0.424280      0.856156
  C       1.193001     -0.409970     -0.845743
  N       2.123405     -0.783388     -1.368708
  C      -1.200467     -0.422740     -0.864420
  N      -2.115911     -0.805918     -1.405614
9
Coordinates from ORCA-job .\amn\amn E -278.654272697661
  N      -0.010258      1.509647     -0.043216
  H       0.840471      1.866653      0.361190
  H      -0.812781      1.853787      0.454511
  C      -0.004753      0.061463     -0.136516
  H      -0.016996     -0.458175      0.822900
  C       1.197960     -0.414061     -0.873614
  N       2.158595     -0.793136     -1.339121
  C      -1.200261     -0.421023     -0.883454
  N      -2.151978     -0.805155     -1.362679
9
Coordinates from ORCA-job .\amn\amn E -278.655210661433
  N      -0.012016      1.497201     -0.061961
  H       0.832639      1.847133      0.346791
  H      -0.800440      1.837957      0.452500
  C      -0.008120      0.057250     -0.128693
  H      -0.013352     -0.447410      0.835659
  C       1.203254     -0.409138     -0.844990
  N       2.145302     -0.775179     -1.354807
  C      -1.208238     -0.417400     -0.859801
  N      -2.139030     -0.790413     -1.384697
9
Coordinates from ORCA-job .\amn\amn E -278.655308393386
  N      -0.012876      1.501093     -0.073257
  H       0.828392      1.840319      0.351754
  H      -0.794844      1.830579      0.458558
  C      -0.008173      0.057762     -0.134504
  H      -0.013604     -0.440544      0.833044
  C       1.204923     -0.407882     -0.845120
  N       2.150156     -0.774637     -1.349725
  C      -1.209901     -0.416180     -0.860767
  N      -2.144072     -0.790509     -1.379984
9
Coordinates from ORCA-job .\amn\amn E -278.655341495446
  N      -0.012492      1.501722     -0.075903
  H       0.827081      1.838171      0.354626
  H      -0.795507      1.827885      0.456426
  C      -0.007407      0.055304     -0.140202
  H      -0.012973     -0.441261      0.827829
  C       1.207854     -0.407392     -0.846294
  N       2.158044     -0.772439     -1.343204
  C      -1.212166     -0.414745     -0.861633
  N      -2.152435     -0.787244     -1.371643
9
Coordinates from ORCA-job .\amn\amn E -278.655351651059
  N      -0.011869      1.501599     -0.076282
  H       0.826825      1.837011      0.356589
  H      -0.797027      1.826883      0.453322
  C      -0.006984      0.054123     -0.142823
  H      -0.012236     -0.442250      0.825176
  C       1.209268     -0.407488     -0.847061
  N       2.162478     -0.770775     -1.340067
  C      -1.213141     -0.414203     -0.862034
  N      -2.157316     -0.784900     -1.366821
9
Coordinates from ORCA-job .\amn\amn E -278.655360711974
  N      -0.010924      1.501117     -0.077003
  H       0.826504      1.835137      0.359352
  H      -0.798834      1.825677      0.448906
  C      -0.006620      0.053313     -0.145020
  H      -0.011260     -0.442992      0.823105
  C       1.210523     -0.407966     -0.847811
  N       2.166671     -0.768333     -1.337423
  C      -1.213992     -0.414080     -0.862165
  N      -2.162068     -0.781872     -1.361941
9
Coordinates from ORCA-job .\amn\amn E -278.655372833536
  N      -0.009136      1.500037     -0.078191
  H       0.825637      1.832106      0.364614
  H      -0.801587      1.824379      0.440979
  C      -0.006079      0.052640     -0.146837
  H      -0.009524     -0.443361      0.821582
  C       1.211642     -0.409437     -0.848491
  N       2.171143     -0.764428     -1.335814
  C      -1.214672     -0.414759     -0.861350
  N      -2.167424     -0.777176     -1.356492
9
Coordinates from ORCA-job .\amn\amn E -278.655381754829
  N      -0.007592      1.498809     -0.079300
  H       0.824420      1.830087      0.369321
  H      -0.803496      1.824038      0.434080
  C      -0.005509      0.052251     -0.146701
  H      -0.008129     -0.443369      0.822031
  C       1.211800     -0.411120     -0.848827
  N       2.172715     -0.761385     -1.336632
  C      -1.214647     -0.415916     -0.859822
  N      -2.169564     -0.773396     -1.354148
9
Coordinates from ORCA-job .\amn\amn E -278.655388187312
  N      -0.006476      1.497746     -0.080059
  H       0.822909      1.829474      0.373091
  H      -0.804613      1.824674      0.428839
  C      -0.004839      0.051836     -0.145042
  H      -0.007077     -0.443247      0.823955
  C       1.211289     -0.412699     -0.848858
  N       2.171910     -0.759781     -1.339416
  C      -1.214096     -0.417090     -0.857863
  N      -2.169007     -0.770913     -1.354647
9
Coordinates from ORCA-job .\amn\amn E -278.655391799120
  N      -0.005841      1.497042     -0.080530
  H       0.821499      1.829778      0.375662
  H      -0.805295      1.825546      0.425361
  C      -0.004140      0.051143     -0.143356
  H      -0.006353     -0.443490      0.825824
  C       1.210887     -0.413674     -0.848972
  N       2.170697     -0.759294     -1.341963
  C      -1.213601     -0.417651     -0.856367
  N      -2.167852     -0.769400     -1.355659
9
Coordinates from ORCA-job .\amn\amn E -278.655394158436
  N      -0.005346      1.496646     -0.080772
  H       0.820174      1.830354      0.378009
  H      -0.806063      1.826388      0.422378
  C      -0.003419      0.050300     -0.142042
  H      -0.005624     -0.443940      0.827263
  C       1.210780     -0.414245     -0.849147
  N       2.169731     -0.759441     -1.344109
  C      -1.213251     -0.417709     -0.855254
  N      -2.166982     -0.768351     -1.356326
9
Coordinates from ORCA-job .\amn\amn E -278.655395932870
  N      -0.004813      1.496518     -0.080894
  H       0.819033      1.830709      0.380566
  H      -0.807090      1.826932      0.419393
  C      -0.002757      0.049555     -0.141422
  H      -0.004828     -0.444441      0.827967
  C       1.211025     -0.414479     -0.849466
  N       2.169347     -0.759864     -1.345516
  C      -1.213086     -0.417384     -0.854603
  N      -2.166831     -0.767546     -1.356026
9
Coordinates from ORCA-job .\amn\amn E -278.655397836648
  N      -0.004051      1.496670     -0.080883
  H       0.817865      1.830766      0.384093
  H      -0.808520      1.827335      0.415783
  C      -0.002090      0.049105     -0.141259
  H      -0.003815     -0.444768      0.828175
  C       1.211466     -0.414531     -0.849950
  N       2.169125     -0.760710     -1.346788
  C      -1.212944     -0.416825     -0.854160
  N      -2.167035     -0.767041     -1.355010
9
Coordinates from ORCA-job .\amn\amn E -278.655400253461
  N      -0.002804      1.497098     -0.080712
  H       0.816322      1.830446      0.389703
  H      -0.810647      1.827746      0.410553
  C      -0.001269      0.049087     -0.141429
  H      -0.002335     -0.444791      0.828005
  C       1.212030     -0.414454     -0.850753
  N       2.168657     -0.762262     -1.348454
  C      -1.212676     -0.416024     -0.853690
  N      -2.167279     -0.766846     -1.353222
9
Coordinates from ORCA-job .\amn\amn E -278.655402570213
  N      -0.001328      1.497752     -0.080347
  H       0.814661      1.829819      0.396354
  H      -0.812875      1.828187      0.404983
  C      -0.000480      0.049792     -0.141830
  H      -0.000725     -0.444273      0.827525
  C       1.212389     -0.414281     -0.851794
  N       2.167701     -0.764435     -1.350345
  C      -1.212229     -0.415255     -0.853204
  N      -2.167114     -0.767306     -1.351342
9
Coordinates from ORCA-job .\amn\amn E -278.655403928558
  N      -0.000363      1.498244     -0.079980
  H       0.813570      1.829283      0.400866
  H      -0.814114      1.828521      0.401730
  C      -0.000026      0.050834     -0.142228
  H       0.000275     -0.443534      0.826992
  C       1.212333     -0.414105     -0.852663
  N       2.166707     -0.766230     -1.351537
  C      -1.211824     -0.414878     -0.852866
  N      -2.166560     -0.768135     -1.350315
9
Coordinates from ORCA-job .\amn\amn E -278.655404341382
  N      -0.000199      1.498353     -0.079827
  H       0.813279      1.829160      0.401894
  H      -0.814203      1.828666      0.401373
  C       0.000072      0.051425     -0.142411
  H       0.000480     -0.443158      0.826709
  C       1.212108     -0.414025     -0.853049
  N       2.166306     -0.766909     -1.351688
  C      -1.211689     -0.414869     -0.852746
  N      -2.166154     -0.768642     -1.350256
