9
Coordinates from ORCA-job .\simulations\amn\amn_solvent_dft E -279.806055248158
  N       0.000000      1.200000      0.000000
  H       0.800000      1.600000      0.000000
  H      -0.800000      1.600000      0.000000
  C       0.000000      0.000000      0.000000
  H       0.000000     -0.800000      1.000000
  C       1.200000     -0.200000     -0.800000
  N       2.200000     -0.400000     -1.200000
  C      -1.200000     -0.200000     -0.800000
  N      -2.200000     -0.400000     -1.200000
9
Coordinates from ORCA-job .\simulations\amn\amn_solvent_dft E -279.916098182803
  N       0.000024      1.287722      0.043675
  H       0.841969      1.722266      0.065393
  H      -0.841797      1.722451      0.066524
  C      -0.000155     -0.014519     -0.009579
  H       0.000145     -0.799386      0.970268
  C       1.204943     -0.260997     -0.819249
  N       2.228738     -0.498168     -1.248563
  C      -1.205085     -0.261066     -0.819479
  N      -2.228782     -0.498304     -1.248990
9
Coordinates from ORCA-job .\simulations\amn\amn_solvent_dft E -279.957031733731
  N      -0.000062      1.355123      0.095865
  H       0.867613      1.819015      0.149040
  H      -0.867890      1.818750      0.149045
  C       0.000110     -0.006488     -0.025368
  H      -0.000011     -0.721197      0.892279
  C       1.202355     -0.323932     -0.835458
  N       2.219496     -0.608924     -1.295071
  C      -1.202204     -0.323749     -0.835379
  N      -2.219406     -0.608598     -1.294953
9
Coordinates from ORCA-job .\simulations\amn\amn_solvent_dft E -279.968053121757
  N      -0.000072      1.407471      0.136685
  H       0.877492      1.890890      0.224699
  H      -0.878123      1.890517      0.221777
  C       0.000499      0.008925     -0.047323
  H      -0.000316     -0.640960      0.831536
  C       1.197785     -0.376107     -0.847366
  N       2.194823     -0.702719     -1.337243
  C      -1.197349     -0.375832     -0.846716
  N      -2.194739     -0.702184     -1.336050
9
Coordinates from ORCA-job .\simulations\amn\amn_solvent_dft E -279.969874801095
  N      -0.000028      1.435069      0.147154
  H       0.878892      1.925763      0.259492
  H      -0.879552      1.925663      0.254957
  C       0.000602      0.022534     -0.069901
  H      -0.000351     -0.626480      0.847598
  C       1.196344     -0.397755     -0.856190
  N       2.177982     -0.743820     -1.364718
  C      -1.195891     -0.397555     -0.855320
  N      -2.177998     -0.743419     -1.363072
9
Coordinates from ORCA-job .\simulations\amn\amn_solvent_dft E -279.970355874346
  N       0.000027      1.439468      0.144924
  H       0.876927      1.929547      0.271213
  H      -0.877194      1.929829      0.267687
  C       0.000282      0.024801     -0.079636
  H      -0.000020     -0.608808      0.838386
  C       1.197807     -0.404352     -0.851881
  N       2.172486     -0.753044     -1.370181
  C      -1.197684     -0.404374     -0.851365
  N      -2.172630     -0.753068     -1.369148
9
Coordinates from ORCA-job .\simulations\amn\amn_solvent_dft E -279.970851609934
  N      -0.000010      1.441869      0.130303
  H       0.873435      1.926304      0.281248
  H      -0.872486      1.926893      0.284846
  C      -0.000829      0.026716     -0.092295
  H       0.000870     -0.587896      0.833606
  C       1.201563     -0.409130     -0.841608
  N       2.166543     -0.757139     -1.375769
  C      -1.202355     -0.409595     -0.842679
  N      -2.166730     -0.758021     -1.377653
9
Coordinates from ORCA-job .\simulations\amn\amn_solvent_dft E -279.971142012532
  N      -0.000239      1.445821      0.106965
  H       0.870417      1.921523      0.288979
  H      -0.867236      1.923251      0.308751
  C      -0.002819      0.030773     -0.091937
  H       0.001859     -0.559299      0.849958
  C       1.203680     -0.417028     -0.818644
  N       2.137750     -0.762104     -1.406762
  C      -1.205861     -0.418283     -0.822903
  N      -2.137551     -0.764654     -1.414407
9
Coordinates from ORCA-job .\simulations\amn\amn_solvent_dft E -279.971596630281
  N      -0.001729      1.451349      0.064502
  H       0.865881      1.907649      0.298061
  H      -0.856525      1.910765      0.348092
  C      -0.006467      0.039181     -0.090603
  H       0.001964     -0.521841      0.870502
  C       1.203840     -0.420137     -0.797199
  N       2.102943     -0.768572     -1.434163
  C      -1.208392     -0.423381     -0.807489
  N      -2.101512     -0.775012     -1.451704
9
Coordinates from ORCA-job .\simulations\amn\amn_solvent_dft E -279.970868086609
  N      -0.010853      1.466666     -0.052635
  H       0.843958      1.842534      0.321305
  H      -0.805812      1.853266      0.442801
  C      -0.017859      0.071967     -0.089385
  H      -0.001867     -0.424139      0.914052
  C       1.201870     -0.404796     -0.757086
  N       2.019652     -0.781310     -1.477363
  C      -1.214767     -0.418173     -0.783094
  N      -2.014321     -0.806015     -1.518595
9
Coordinates from ORCA-job .\simulations\amn\amn_solvent_dft E -279.974127649823
  N      -0.007677      1.455259     -0.034197
  H       0.860006      1.844309      0.301854
  H      -0.836137      1.850190      0.396273
  C      -0.011787      0.059686     -0.084271
  H      -0.002013     -0.472807      0.907287
  C       1.201717     -0.405684     -0.788489
  N       2.095387     -0.751129     -1.430836
  C      -1.209075     -0.413880     -0.805829
  N      -2.090421     -0.765945     -1.461790
9
Coordinates from ORCA-job .\simulations\amn\amn_solvent_dft E -279.975810026836
  N      -0.007672      1.482323     -0.022804
  H       0.861784      1.870992      0.330164
  H      -0.840155      1.872732      0.416713
  C      -0.009800      0.067149     -0.089974
  H      -0.003259     -0.463206      0.900291
  C       1.196635     -0.421939     -0.799109
  N       2.084777     -0.783800     -1.447175
  C      -1.202631     -0.428586     -0.813922
  N      -2.079680     -0.795664     -1.474183
9
Coordinates from ORCA-job .\simulations\amn\amn_solvent_dft E -279.978602213993
  N      -0.011119      1.518864     -0.068439
  H       0.853049      1.856232      0.366894
  H      -0.827557      1.851086      0.454084
  C      -0.007843      0.082928     -0.100754
  H      -0.008780     -0.433574      0.893276
  C       1.190721     -0.429833     -0.821132
  N       2.102219     -0.799075     -1.432506
  C      -1.194829     -0.436565     -0.833964
  N      -2.095860     -0.810062     -1.457458
9
Coordinates from ORCA-job .\simulations\amn\amn_solvent_dft E -279.979553811323
  N      -0.013290      1.539741     -0.102560
  H       0.834466      1.843069      0.391556
  H      -0.805137      1.833345      0.478936
  C      -0.006635      0.083638     -0.118723
  H      -0.011834     -0.411570      0.874488
  C       1.190422     -0.432479     -0.833903
  N       2.121887     -0.802070     -1.409103
  C      -1.194034     -0.439846     -0.846683
  N      -2.115846     -0.813828     -1.434008
9
Coordinates from ORCA-job .\simulations\amn\amn_solvent_dft E -279.979827916151
  N      -0.011875      1.533411     -0.094735
  H       0.830731      1.855261      0.391450
  H      -0.805165      1.843534      0.471708
  C      -0.004942      0.068629     -0.128664
  H      -0.011195     -0.427183      0.859651
  C       1.193648     -0.432610     -0.842252
  N       2.142591     -0.796510     -1.390227
  C      -1.196186     -0.438611     -0.854243
  N      -2.137607     -0.805921     -1.412689
9
Coordinates from ORCA-job .\simulations\amn\amn_solvent_dft E -279.979976251522
  N      -0.011940      1.527774     -0.104115
  H       0.826635      1.844103      0.387141
  H      -0.800757      1.833512      0.468590
  C      -0.005321      0.064532     -0.133825
  H      -0.010498     -0.428218      0.860415
  C       1.196565     -0.426146     -0.843009
  N       2.155710     -0.786536     -1.377943
  C      -1.199242     -0.432423     -0.855950
  N      -2.151153     -0.796598     -1.401304
9
Coordinates from ORCA-job .\simulations\amn\amn_solvent_dft E -279.980002170141
  N      -0.011806      1.525801     -0.106601
  H       0.826085      1.840602      0.386709
  H      -0.800806      1.830325      0.466981
  C      -0.005483      0.063759     -0.137489
  H      -0.009970     -0.429140      0.857909
  C       1.200023     -0.423742     -0.842731
  N       2.162572     -0.783967     -1.372967
  C      -1.202463     -0.429870     -0.855880
  N      -2.158152     -0.793768     -1.395930
9
Coordinates from ORCA-job .\simulations\amn\amn_solvent_dft E -279.980013578222
  N      -0.011462      1.525816     -0.107479
  H       0.826280      1.838990      0.388297
  H      -0.801894      1.828912      0.465943
  C      -0.005447      0.064134     -0.141341
  H      -0.009465     -0.430236      0.853455
  C       1.202699     -0.422544     -0.843667
  N       2.168379     -0.783565     -1.368222
  C      -1.204887     -0.428488     -0.856610
  N      -2.164203     -0.793018     -1.390378
9
Coordinates from ORCA-job .\simulations\amn\amn_solvent_dft E -279.980017630640
  N      -0.011093      1.526730     -0.107326
  H       0.826358      1.838592      0.390490
  H      -0.802735      1.828764      0.465529
  C      -0.005358      0.065144     -0.143900
  H      -0.009028     -0.430544      0.850073
  C       1.203711     -0.422298     -0.844643
  N       2.170927     -0.784502     -1.365756
  C      -1.205800     -0.428177     -0.857280
  N      -2.166982     -0.793708     -1.387187
9
Coordinates from ORCA-job .\simulations\amn\amn_solvent_dft E -279.980019327784
  N      -0.010728      1.527430     -0.106978
  H       0.826216      1.838356      0.392387
  H      -0.803282      1.828846      0.464966
  C      -0.005241      0.065965     -0.145423
  H      -0.008649     -0.430505      0.848073
  C       1.203779     -0.422292     -0.845605
  N       2.171904     -0.785316     -1.364384
  C      -1.205847     -0.428148     -0.857830
  N      -2.168153     -0.794337     -1.385205
9
Coordinates from ORCA-job .\simulations\amn\amn_solvent_dft E -279.980020334472
  N      -0.010323      1.527893     -0.106667
  H       0.825769      1.838079      0.394357
  H      -0.803693      1.828962      0.464095
  C      -0.005082      0.066700     -0.146354
  H      -0.008218     -0.430095      0.846967
  C       1.203519     -0.422388     -0.846386
  N       2.172026     -0.786110     -1.363918
  C      -1.205562     -0.428197     -0.858078
  N      -2.168436     -0.794845     -1.384017
9
Coordinates from ORCA-job .\simulations\amn\amn_solvent_dft E -279.980021092620
  N      -0.009871      1.527997     -0.106530
  H       0.825159      1.837730      0.396251
  H      -0.804149      1.829043      0.462714
  C      -0.004853      0.067104     -0.146773
  H      -0.007748     -0.429730      0.846582
  C       1.203260     -0.422478     -0.847054
  N       2.171932     -0.786579     -1.363937
  C      -1.205239     -0.428174     -0.858079
  N      -2.168490     -0.794913     -1.383174
