9
Coordinates from ORCA-job .\simulations\amn\amn_solvent_dft E -279.980021092620
  N          -0.00987129261637      1.52799706678169     -0.10653030375195
  H           0.82515860286247      1.83773012305296      0.39625064652298
  H          -0.80414919072676      1.82904270520799      0.46271441640549
  C          -0.00485325077166      0.06710405654610     -0.14677290709953
  H          -0.00774834628449     -0.42973034095110      0.84658157531821
  C           1.20326041284888     -0.42247807297768     -0.84705366869665
  N           2.17193213432361     -0.78657867958694     -1.36393650246656
  C          -1.20523900956697     -0.42817429532683     -0.85807934799652
  N          -2.16849006006873     -0.79491256274620     -1.38317390823549
