! HF 6-31G* OPT

* xyz 0 1
H    -1.0   0.0   0.0
C     0.0   0.0   0.0
N     1.2   0.0   0.0
H     4.0   0.0   0.0
C     5.0   0.0   0.0
N     6.2   0.0   0.0
H     0.0   5.0   0.0
C     1.0   5.0   0.0
N     2.2   5.0   0.0
H     0.0   0.0   5.0
C     1.0   0.0   5.0
N     2.2   0.0   5.0
H     4.0   5.0   0.0
C     5.0   5.0   0.0
N     6.2   5.0   0.0
*
