10
Coordinates from ORCA-job .\damn E -294.814094291486
  C       0.000000      0.000000      0.000000
  C       1.330000      0.000000      0.000000
  N      -0.700000      1.200000      0.000000
  N       2.030000      1.200000      0.000000
  N      -0.700000     -1.200000      0.000000
  N       2.030000     -1.200000      0.000000
  H      -1.400000      1.200000      0.000000
  H       2.730000      1.200000      0.000000
  H      -1.400000     -1.200000      0.000000
  H       2.730000     -1.200000      0.000000
10
Coordinates from ORCA-job .\damn E -295.211245004976
  C      -0.006840     -0.000000      0.000000
  C       1.336840      0.000000     -0.000000
  N      -0.697691      1.192767      0.000000
  N       2.027691      1.192767     -0.000000
  N      -0.697691     -1.192767      0.000000
  N       2.027691     -1.192767     -0.000000
  H      -1.475890      1.190013     -0.000000
  H       2.805890      1.190013      0.000000
  H      -1.475890     -1.190013     -0.000000
  H       2.805890     -1.190013      0.000000
10
Coordinates from ORCA-job .\damn E -295.425245427897
  C      -0.024736      0.000000      0.000000
  C       1.354736      0.000000     -0.000000
  N      -0.685047      1.175336      0.000000
  N       2.015047      1.175336     -0.000000
  N      -0.685047     -1.175336      0.000000
  N       2.015047     -1.175336     -0.000000
  H      -1.532041      1.162372     -0.000000
  H       2.862041      1.162372      0.000000
  H      -1.532041     -1.162372     -0.000000
  H       2.862041     -1.162372      0.000000
10
Coordinates from ORCA-job .\damn E -295.546913701756
  C      -0.050179     -0.000000     -0.000000
  C       1.380179     -0.000000      0.000000
  N      -0.651149      1.161055     -0.000000
  N       1.981149      1.161055      0.000000
  N      -0.651149     -1.161055     -0.000000
  N       1.981149     -1.161055      0.000000
  H      -1.571357      1.128331      0.000000
  H       2.901357      1.128331     -0.000000
  H      -1.571357     -1.128331      0.000000
  H       2.901357     -1.128331     -0.000000
10
Coordinates from ORCA-job .\damn E -295.578976797538
  C      -0.069742     -0.000000     -0.000000
  C       1.399742     -0.000000      0.000000
  N      -0.636729      1.176217     -0.000000
  N       1.966729      1.176217      0.000000
  N      -0.636729     -1.176217     -0.000000
  N       1.966729     -1.176217      0.000000
  H      -1.607380      1.123674      0.000000
  H       2.937380      1.123674     -0.000000
  H      -1.607380     -1.123674      0.000000
  H       2.937380     -1.123674     -0.000000
10
Coordinates from ORCA-job .\damn E -295.584097794984
  C      -0.078161     -0.000000      0.000000
  C       1.408161     -0.000000     -0.000000
  N      -0.634127      1.179299      0.000000
  N       1.964127      1.179299     -0.000000
  N      -0.634127     -1.179299      0.000000
  N       1.964127     -1.179299     -0.000000
  H      -1.629978      1.105712     -0.000000
  H       2.959978      1.105712      0.000000
  H      -1.629978     -1.105712     -0.000000
  H       2.959978     -1.105712      0.000000
10
Coordinates from ORCA-job .\damn E -295.584432808537
  C      -0.079210     -0.000000     -0.000000
  C       1.409210     -0.000000      0.000000
  N      -0.634771      1.180512     -0.000000
  N       1.964771      1.180512      0.000000
  N      -0.634771     -1.180512     -0.000000
  N       1.964771     -1.180512      0.000000
  H      -1.638250      1.099994      0.000000
  H       2.968250      1.099994     -0.000000
  H      -1.638250     -1.099994      0.000000
  H       2.968250     -1.099994     -0.000000
10
Coordinates from ORCA-job .\damn E -295.584452080551
  C      -0.078342     -0.000000      0.000000
  C       1.408342     -0.000000     -0.000000
  N      -0.634556      1.179990      0.000000
  N       1.964556      1.179990     -0.000000
  N      -0.634556     -1.179990      0.000000
  N       1.964556     -1.179990     -0.000000
  H      -1.639411      1.098318     -0.000000
  H       2.969411      1.098318      0.000000
  H      -1.639411     -1.098318     -0.000000
  H       2.969411     -1.098318      0.000000
10
Coordinates from ORCA-job .\damn E -295.584456796897
  C      -0.077426     -0.000000     -0.000000
  C       1.407426     -0.000000      0.000000
  N      -0.634357      1.179818     -0.000000
  N       1.964357      1.179818      0.000000
  N      -0.634357     -1.179818     -0.000000
  N       1.964357     -1.179818      0.000000
  H      -1.639587      1.098085      0.000000
  H       2.969587      1.098085     -0.000000
  H      -1.639587     -1.098085      0.000000
  H       2.969587     -1.098085     -0.000000
10
Coordinates from ORCA-job .\damn E -295.584457192700
  C      -0.077133     -0.000000      0.000000
  C       1.407133     -0.000000     -0.000000
  N      -0.634257      1.179722      0.000000
  N       1.964257      1.179722     -0.000000
  N      -0.634257     -1.179722      0.000000
  N       1.964257     -1.179722     -0.000000
  H      -1.639380      1.098082     -0.000000
  H       2.969380      1.098082      0.000000
  H      -1.639380     -1.098082     -0.000000
  H       2.969380     -1.098082      0.000000
