10
Coordinates from ORCA-job .\damn E -295.584457192700
  C          -0.07713342289056     -0.00000000000497      0.00000000141782
  C           1.40713342290031     -0.00000000000541     -0.00000000131092
  N          -0.63425731107919      1.17972233767894      0.00000000144748
  N           1.96425731107942      1.17972233768687     -0.00000000162477
  N          -0.63425731109192     -1.17972233768197      0.00000000166532
  N           1.96425731109300     -1.17972233769161     -0.00000000140812
  H          -1.63938001228520      1.09808174694772     -0.00000000101359
  H           2.96938001227927      1.09808174697820      0.00000000115360
  H          -1.63938001229684     -1.09808174693864     -0.00000000125148
  H           2.96938001229171     -1.09808174696913      0.00000000092467
