13
Coordinates from ORCA-job .\simulations\3hcn_nh3\3hcn_nh3_solvent_dft E -336.378773570590
  H      -1.000000      0.000000      0.000000
  C       0.000000      0.000000      0.000000
  N       1.200000      0.000000      0.000000
  H       4.000000      0.000000      0.000000
  C       5.000000      0.000000      0.000000
  N       6.200000      0.000000      0.000000
  H      -1.000000      5.000000      0.000000
  C       0.000000      5.000000      0.000000
  N       1.200000      5.000000      0.000000
  N       0.000000      0.000000      5.000000
  H       0.900000      0.000000      5.500000
  H      -0.900000      0.000000      5.500000
  H       0.000000      0.900000      4.500000
13
Coordinates from ORCA-job .\simulations\3hcn_nh3\3hcn_nh3_solvent_dft E -336.411210922794
  H      -1.038449      0.005335      0.004093
  C       0.031754      0.001756      0.000487
  N       1.189432     -0.001990     -0.000719
  H       3.980585     -0.009950     -0.002702
  C       5.045302      0.004554     -0.003440
  N       6.201232      0.005854     -0.004246
  H      -1.032759      4.997275      0.001040
  C       0.037464      5.000611      0.000093
  N       1.196752      4.996838     -0.000701
  N      -0.003037      0.000861      4.990730
  H       0.871328     -0.001640      5.509467
  H      -0.879037      0.002466      5.508311
  H      -0.000566      0.898030      4.497587
13
Coordinates from ORCA-job .\simulations\3hcn_nh3\3hcn_nh3_solvent_dft E -336.414564909492
  H      -1.002091      0.001137     -0.007341
  C       0.080586      0.005317     -0.006142
  N       1.233794      0.009916     -0.001967
  H       3.905272     -0.009465      0.011524
  C       4.986868     -0.001376      0.016999
  N       6.141118      0.000472      0.022855
  H      -1.040862      4.994587     -0.010531
  C       0.041509      5.008207     -0.005761
  N       1.195252      5.011374     -0.000258
  N       0.016534     -0.005342      4.964922
  H       0.866985     -0.000911      5.524192
  H      -0.840945     -0.007944      5.513302
  H       0.015979      0.894028      4.478206
13
Coordinates from ORCA-job .\simulations\3hcn_nh3\3hcn_nh3_solvent_dft E -336.417039011109
  H      -0.943572     -0.004029     -0.025296
  C       0.147611      0.013728     -0.014628
  N       1.300109      0.030827     -0.002607
  H       3.809826     -0.009465      0.029921
  C       4.902944     -0.015610      0.044201
  N       6.058233     -0.017025      0.059272
  H      -1.054257      4.991696     -0.026677
  C       0.036372      5.018915     -0.012281
  N       1.189702      5.035462      0.001981
  N       0.044361     -0.016969      4.924832
  H       0.854377      0.004048      5.545735
  H      -0.783714     -0.021285      5.521663
  H       0.038008      0.889707      4.453885
13
Coordinates from ORCA-job .\simulations\3hcn_nh3\3hcn_nh3_solvent_dft E -336.418163021857
  H      -0.875931     -0.015129     -0.043744
  C       0.213294      0.015861     -0.023027
  N       1.365063      0.045628     -0.002404
  H       3.710750     -0.000726      0.048672
  C       4.803048     -0.014752      0.072737
  N       5.958436     -0.029544      0.098059
  H      -1.052596      4.985849     -0.040711
  C       0.036559      5.023671     -0.018200
  N       1.189107      5.051974      0.006019
  N       0.073628     -0.026699      4.899647
  H       0.863371      0.010347      5.549519
  H      -0.745286     -0.033197      5.513121
  H       0.060556      0.886715      4.440312
13
Coordinates from ORCA-job .\simulations\3hcn_nh3\3hcn_nh3_solvent_dft E -336.418926966348
  H      -0.809535     -0.024139     -0.060911
  C       0.275035      0.019930     -0.030348
  N       1.427514      0.062312     -0.000088
  H       3.629131      0.002902      0.062818
  C       4.718345     -0.023012      0.094409
  N       5.873555     -0.049846      0.127901
  H      -1.055830      4.978931     -0.051544
  C       0.028240      5.029161     -0.018997
  N       1.182318      5.070959      0.013783
  N       0.098032     -0.031638      4.884318
  H       0.878416      0.019112      5.546657
  H      -0.723092     -0.042410      5.497132
  H       0.077872      0.887737      4.434873
13
Coordinates from ORCA-job .\simulations\3hcn_nh3\3hcn_nh3_solvent_dft E -336.419224684225
  H      -0.764996     -0.028531     -0.072918
  C       0.316728      0.023561     -0.036383
  N       1.468922      0.074364      0.000663
  H       3.573874      0.004307      0.072956
  C       4.662155     -0.030201      0.111039
  N       5.817169     -0.066612      0.151258
  H      -1.059699      4.973741     -0.056289
  C       0.021112      5.031931     -0.019872
  N       1.175053      5.083956      0.020136
  N       0.115692     -0.033755      4.876061
  H       0.894772      0.025708      5.539371
  H      -0.711287     -0.047558      5.481282
  H       0.090506      0.889089      4.432695
13
Coordinates from ORCA-job .\simulations\3hcn_nh3\3hcn_nh3_solvent_dft E -336.419285865988
  H      -0.748470     -0.024792     -0.068228
  C       0.334700      0.026878     -0.029750
  N       1.486158      0.079027      0.010226
  H       3.527381      0.017798      0.083885
  C       4.619175     -0.016064      0.123989
  N       5.773924     -0.055078      0.166468
  H      -1.048604      4.956328     -0.069066
  C       0.032891      5.013932     -0.012636
  N       1.186088      5.067676      0.029359
  N       0.128029     -0.033647      4.861251
  H       0.907726      0.026143      5.523077
  H      -0.701700     -0.048115      5.461862
  H       0.102702      0.889913      4.419565
13
Coordinates from ORCA-job .\simulations\3hcn_nh3\3hcn_nh3_solvent_dft E -336.419278593013
  H      -0.757119     -0.018107     -0.052459
  C       0.326662      0.029672     -0.017195
  N       1.478344      0.079016      0.021334
  H       3.516071      0.023266      0.099219
  C       4.609554     -0.009844      0.141973
  N       5.764390     -0.045672      0.186878
  H      -1.044695      4.934731     -0.017934
  C       0.038834      4.988098     -0.014194
  N       1.192167      5.040814      0.031411
  N       0.136610     -0.023001      4.826814
  H       0.919813      0.035173      5.484286
  H      -0.693981     -0.034141      5.426010
  H       0.113350      0.899994      4.383858
13
Coordinates from ORCA-job .\simulations\3hcn_nh3\3hcn_nh3_solvent_dft E -336.419367836669
  H      -0.775924     -0.007366     -0.026516
  C       0.307590      0.036124      0.005351
  N       1.459664      0.081197      0.040056
  H       3.525652      0.024807      0.111090
  C       4.618807     -0.008294      0.149537
  N       5.774016     -0.040606      0.190098
  H      -1.042667      4.919548     -0.026737
  C       0.039821      4.969497      0.009253
  N       1.193761      5.019498      0.049456
  N       0.140830     -0.015972      4.796542
  H       0.926970      0.038750      5.451042
  H      -0.688383     -0.024124      5.397846
  H       0.119862      0.906943      4.352981
13
Coordinates from ORCA-job .\simulations\3hcn_nh3\3hcn_nh3_solvent_dft E -336.419396946002
  H      -0.778471     -0.003227     -0.013595
  C       0.305250      0.038957      0.018685
  N       1.457260      0.082305      0.052223
  H       3.514867      0.028728      0.121927
  C       4.608007     -0.003577      0.159894
  N       5.763146     -0.037010      0.199987
  H      -1.039723      4.908709     -0.024233
  C       0.042856      4.957458      0.017861
  N       1.196480      5.007043      0.057451
  N       0.147986     -0.012497      4.773447
  H       0.933657      0.040936      5.428586
  H      -0.679690     -0.018715      5.376935
  H       0.128376      0.910890      4.330832
13
Coordinates from ORCA-job .\simulations\3hcn_nh3\3hcn_nh3_solvent_dft E -336.419444481430
  H      -0.786271      0.005040      0.008399
  C       0.297366      0.044238      0.040726
  N       1.449543      0.083785      0.072177
  H       3.502278      0.034389      0.140113
  C       4.595287      0.002677      0.177446
  N       5.750441     -0.031459      0.216884
  H      -1.035903      4.891386     -0.015010
  C       0.046541      4.937193      0.029793
  N       1.200143      4.986081      0.068958
  N       0.159083     -0.006560      4.735041
  H       0.945579      0.043747      5.389459
  H      -0.666646     -0.008562      5.341358
  H       0.142559      0.918044      4.294655
13
Coordinates from ORCA-job .\simulations\3hcn_nh3\3hcn_nh3_solvent_dft E -336.419522532102
  H      -0.799934      0.015804      0.044035
  C       0.284089      0.050487      0.073125
  N       1.436300      0.085278      0.101297
  H       3.487793      0.040900      0.166228
  C       4.580946      0.010474      0.202169
  N       5.736112     -0.023159      0.240174
  H      -1.031190      4.866480      0.001810
  C       0.051545      4.909141      0.048403
  N       1.205090      4.955552      0.086116
  N       0.174161      0.003933      4.678616
  H       0.962746      0.049617      5.330911
  H      -0.649096      0.006631      5.288380
  H       0.161436      0.928862      4.238738
13
Coordinates from ORCA-job .\simulations\3hcn_nh3\3hcn_nh3_solvent_dft E -336.419619595783
  H      -0.813168      0.025696      0.082459
  C       0.270965      0.056267      0.108168
  N       1.423283      0.086693      0.132499
  H       3.473458      0.045743      0.194344
  C       4.566674      0.015894      0.228856
  N       5.721907     -0.017336      0.265371
  H      -1.028395      4.842694      0.020923
  C       0.054412      4.882692      0.067791
  N       1.208058      4.927034      0.103923
  N       0.190431      0.015186      4.618113
  H       0.981456      0.056384      5.267741
  H      -0.630478      0.022616      5.231070
  H       0.181398      0.940438      4.178743
13
Coordinates from ORCA-job .\simulations\3hcn_nh3\3hcn_nh3_solvent_dft E -336.419736106592
  H      -0.826525      0.034809      0.122084
  C       0.257713      0.061459      0.144029
  N       1.410109      0.087740      0.164169
  H       3.460143      0.049608      0.222840
  C       4.553413      0.020317      0.255852
  N       5.708702     -0.012577      0.290789
  H      -1.026589      4.820519      0.040764
  C       0.056351      4.858141      0.086602
  N       1.210095      4.900350      0.121017
  N       0.206661      0.026437      4.556952
  H       1.000253      0.062751      5.203714
  H      -0.611784      0.038509      5.173170
  H       0.201458      0.951937      4.118016
13
Coordinates from ORCA-job .\simulations\3hcn_nh3\3hcn_nh3_solvent_dft E -336.419842718772
  H      -0.837193      0.041625      0.153528
  C       0.247044      0.065331      0.172598
  N       1.399612      0.088465      0.189278
  H       3.450518      0.051873      0.245638
  C       4.543790      0.022725      0.277593
  N       5.699133     -0.009947      0.311402
  H      -1.026186      4.805106      0.056224
  C       0.056803      4.841054      0.099757
  N       1.210713      4.881662      0.133018
  N       0.219517      0.034715      4.509008
  H       1.015449      0.066226      5.153156
  H      -0.597008      0.050460      5.127699
  H       0.217808      0.960704      4.071102
13
Coordinates from ORCA-job .\simulations\3hcn_nh3\3hcn_nh3_solvent_dft E -336.419975392611
  H      -0.848895      0.048980      0.190088
  C       0.235372      0.069402      0.205539
  N       1.387927      0.088987      0.218169
  H       3.439129      0.054421      0.271683
  C       4.532414      0.025663      0.302325
  N       5.687814     -0.006829      0.334656
  H      -1.025721      4.788389      0.072428
  C       0.057370      4.822435      0.114743
  N       1.211376      4.861151      0.146422
  N       0.234042      0.043795      4.454394
  H       1.032432      0.069294      5.095706
  H      -0.580022      0.063981      5.076226
  H       0.236763      0.970330      4.017622
13
Coordinates from ORCA-job .\simulations\3hcn_nh3\3hcn_nh3_solvent_dft E -336.420144824069
  H      -0.860843      0.056354      0.231723
  C       0.223407      0.073469      0.242933
  N       1.375888      0.089578      0.251029
  H       3.425731      0.056585      0.301256
  C       4.519062      0.027917      0.330350
  N       5.674494     -0.004654      0.361153
  H      -1.026037      4.770713      0.090337
  C       0.057125      4.802897      0.131852
  N       1.211222      4.839896      0.161701
  N       0.250703      0.054009      4.392440
  H       1.051759      0.073171      5.030608
  H      -0.560585      0.078943      5.017780
  H       0.258074      0.981123      3.956839
13
Coordinates from ORCA-job .\simulations\3hcn_nh3\3hcn_nh3_solvent_dft E -336.420343086095
  H      -0.872995      0.063239      0.275242
  C       0.211202      0.077137      0.281956
  N       1.363612      0.089900      0.284616
  H       3.412960      0.058072      0.331501
  C       4.506332      0.029438      0.359029
  N       5.661805     -0.003286      0.388178
  H      -1.027150      4.754256      0.108597
  C       0.056104      4.784642      0.148741
  N       1.210293      4.819940      0.176525
  N       0.267456      0.064265      4.329024
  H       1.071318      0.076320      4.963777
  H      -0.540861      0.094099      4.958021
  H       0.279924      0.991978      3.894793
13
Coordinates from ORCA-job .\simulations\3hcn_nh3\3hcn_nh3_solvent_dft E -336.420559690414
  H      -0.884758      0.069780      0.320029
  C       0.199347      0.080598      0.321694
  N       1.351647      0.090206      0.318232
  H       3.400477      0.059135      0.361810
  C       4.493892      0.030405      0.387786
  N       5.649400     -0.002517      0.415300
  H      -1.028820      4.738674      0.126863
  C       0.054525      4.767404      0.165222
  N       1.208819      4.801097      0.190796
  N       0.283973      0.074463      4.265245
  H       1.090710      0.078554      4.896379
  H      -0.521273      0.109317      4.897927
  H       0.302061      1.002885      3.832717
13
Coordinates from ORCA-job .\simulations\3hcn_nh3\3hcn_nh3_solvent_dft E -336.420777596465
  H      -0.896272      0.076652      0.365944
  C       0.187722      0.084321      0.361472
  N       1.339845      0.090813      0.351345
  H       3.388288      0.060309      0.391660
  C       4.481765      0.031532      0.416097
  N       5.637304     -0.001490      0.441972
  H      -1.030387      4.722360      0.145575
  C       0.053081      4.749518      0.181852
  N       1.207462      4.781521      0.205069
  N       0.299791      0.085035      4.201568
  H       1.109461      0.080104      4.828814
  H      -0.502307      0.125211      4.837873
  H       0.324249      1.014113      3.770759
13
Coordinates from ORCA-job .\simulations\3hcn_nh3\3hcn_nh3_solvent_dft E -336.420870851235
  H      -0.930346      0.102881      0.422958
  C       0.155952      0.103036      0.410319
  N       1.314489      0.104624      0.379412
  H       3.392478      0.063739      0.425162
  C       4.486031      0.031663      0.453398
  N       5.641686      0.002255      0.482878
  H      -1.036745      4.714103      0.166155
  C       0.046235      4.739291      0.157577
  N       1.202340      4.765197      0.184172
  N       0.312331      0.088085      4.142410
  H       1.133814      0.023115      4.753269
  H      -0.488855      0.134494      4.777761
  H       0.370590      1.027517      3.744530
13
Coordinates from ORCA-job .\simulations\3hcn_nh3\3hcn_nh3_solvent_dft E -336.421179560259
  H      -0.928436      0.105941      0.463626
  C       0.155869      0.104640      0.441911
  N       1.308904      0.103040      0.411802
  H       3.369399      0.068012      0.450956
  C       4.462647      0.037611      0.475719
  N       5.618303      0.005317      0.501914
  H      -1.033762      4.692902      0.171193
  C       0.049841      4.716522      0.188118
  N       1.205033      4.742605      0.209991
  N       0.327410      0.097591      4.083593
  H       1.145716      0.038621      4.697162
  H      -0.467464      0.152209      4.727326
  H       0.386538      1.034990      3.676689
13
Coordinates from ORCA-job .\simulations\3hcn_nh3\3hcn_nh3_solvent_dft E -336.421296918963
  H      -0.935227      0.117400      0.495872
  C       0.148769      0.113386      0.466509
  N       1.301575      0.108937      0.429014
  H       3.358761      0.073198      0.468063
  C       4.452067      0.042446      0.493269
  N       5.607678      0.009825      0.519902
  H      -1.032418      4.678887      0.174864
  C       0.051231      4.701280      0.192638
  N       1.206449      4.725824      0.213888
  N       0.335555      0.101361      4.047092
  H       1.155137      0.024791      4.656949
  H      -0.456246      0.161361      4.694163
  H       0.406670      1.041303      3.647777
13
Coordinates from ORCA-job .\simulations\3hcn_nh3\3hcn_nh3_solvent_dft E -336.421484702812
  H      -0.943045      0.148736      0.565793
  C       0.139554      0.141082      0.509594
  N       1.291349      0.131486      0.447346
  H       3.332808      0.089700      0.493665
  C       4.425968      0.057019      0.524970
  N       5.581256      0.021058      0.558385
  H      -1.029176      4.657565      0.152424
  C       0.054430      4.678392      0.182603
  N       1.209611      4.700633      0.205147
  N       0.347174      0.096999      3.991869
  H       1.165665     -0.040993      4.592529
  H      -0.435278      0.170614      4.649678
  H       0.459684      1.047709      3.625997
13
Coordinates from ORCA-job .\simulations\3hcn_nh3\3hcn_nh3_solvent_dft E -336.421634005442
  H      -0.954041      0.181810      0.626376
  C       0.127435      0.167568      0.546829
  N       1.277284      0.152692      0.460463
  H       3.323340      0.107106      0.507589
  C       4.416770      0.075190      0.540951
  N       5.572039      0.040757      0.575928
  H      -1.019803      4.623390      0.152939
  C       0.064344      4.641107      0.177456
  N       1.219208      4.658041      0.198367
  N       0.345751      0.101458      3.950018
  H       1.161064     -0.091944      4.539716
  H      -0.430128      0.187574      4.613408
  H       0.496738      1.055250      3.609960
13
Coordinates from ORCA-job .\simulations\3hcn_nh3\3hcn_nh3_solvent_dft E -336.421838910493
  H      -0.949610      0.220183      0.707645
  C       0.128006      0.203921      0.584870
  N       1.274438      0.187457      0.454490
  H       3.313356      0.128821      0.507728
  C       4.406734      0.095401      0.547992
  N       5.561727      0.059548      0.589685
  H      -1.013041      4.592452      0.129997
  C       0.071099      4.609546      0.156629
  N       1.226009      4.624372      0.176262
  N       0.332146      0.100348      3.921930
  H       1.132187     -0.186978      4.495362
  H      -0.434061      0.205880      4.593922
  H       0.551012      1.059049      3.633488
13
Coordinates from ORCA-job .\simulations\3hcn_nh3\3hcn_nh3_solvent_dft E -336.422064726715
  H      -0.944243      0.260386      0.786091
  C       0.128265      0.240683      0.624565
  N       1.269429      0.221366      0.450740
  H       3.306323      0.150885      0.506927
  C       4.399566      0.116374      0.552057
  N       5.554394      0.080207      0.598856
  H      -1.004813      4.557078      0.114704
  C       0.079537      4.572434      0.139103
  N       1.234580      4.584759      0.156011
  N       0.317963      0.102441      3.894140
  H       1.096713     -0.270060      4.448606
  H      -0.438522      0.226202      4.574286
  H       0.600806      1.057245      3.653913
13
Coordinates from ORCA-job .\simulations\3hcn_nh3\3hcn_nh3_solvent_dft E -336.422288724868
  H      -0.936952      0.301499      0.862535
  C       0.129025      0.277031      0.663257
  N       1.263507      0.254056      0.447921
  H       3.299076      0.173435      0.505627
  C       4.392214      0.138490      0.554764
  N       5.546881      0.102490      0.605842
  H      -0.995110      4.517947      0.103945
  C       0.089577      4.531065      0.125208
  N       1.244690      4.540569      0.138819
  N       0.304452      0.106943      3.866737
  H       1.056983     -0.342944      4.400305
  H      -0.442285      0.247860      4.554535
  H       0.647942      1.051559      3.670503
13
Coordinates from ORCA-job .\simulations\3hcn_nh3\3hcn_nh3_solvent_dft E -336.422590878450
  H      -0.904975      0.322284      0.958859
  C       0.149022      0.300867      0.714529
  N       1.266290      0.283220      0.429355
  H       3.335519      0.188228      0.469218
  C       4.428643      0.153549      0.513192
  N       5.583680      0.121476      0.560916
  H      -0.983033      4.485611      0.134323
  C       0.099747      4.488999      0.116204
  N       1.255267      4.498638      0.111763
  N       0.247959      0.115589      3.864711
  H       0.981341     -0.373373      4.374677
  H      -0.494692      0.270061      4.550703
  H       0.635232      1.044851      3.701549
13
Coordinates from ORCA-job .\simulations\3hcn_nh3\3hcn_nh3_solvent_dft E -336.422934724888
  H      -0.868961      0.338910      1.039238
  C       0.173304      0.322736      0.744275
  N       1.279390      0.310020      0.409653
  H       3.344042      0.205911      0.441366
  C       4.437300      0.172039      0.486252
  N       5.592142      0.139746      0.534088
  H      -0.975225      4.455517      0.130948
  C       0.108323      4.460053      0.106568
  N       1.263688      4.470277      0.093015
  N       0.208948      0.126036      3.862858
  H       0.904969     -0.436503      4.356478
  H      -0.527174      0.297820      4.553039
  H       0.659255      1.037437      3.742223
13
Coordinates from ORCA-job .\simulations\3hcn_nh3\3hcn_nh3_solvent_dft E -336.423219788641
  H      -0.815935      0.327090      1.101569
  C       0.213849      0.323897      0.761869
  N       1.311054      0.321746      0.404100
  H       3.355347      0.220428      0.405094
  C       4.449099      0.188176      0.438902
  N       5.604338      0.156450      0.472979
  H      -0.962000      4.425028      0.147840
  C       0.122850      4.434352      0.119957
  N       1.277279      4.446073      0.089394
  N       0.156484      0.142572      3.869962
  H       0.832070     -0.451644      4.366514
  H      -0.580781      0.321777      4.559057
  H       0.636346      1.044054      3.762763
13
Coordinates from ORCA-job .\simulations\3hcn_nh3\3hcn_nh3_solvent_dft E -336.423560011059
  H      -0.751648      0.328268      1.204226
  C       0.259000      0.335858      0.809919
  N       1.340713      0.342725      0.396860
  H       3.379360      0.238212      0.360721
  C       4.473454      0.206562      0.381393
  N       5.629108      0.175962      0.401658
  H      -0.947698      4.387376      0.171797
  C       0.136533      4.397445      0.125796
  N       1.290503      4.411214      0.072451
  N       0.090825      0.161199      3.868461
  H       0.734511     -0.479163      4.353618
  H      -0.646505      0.351002      4.555099
  H       0.611845      1.043341      3.798001
13
Coordinates from ORCA-job .\simulations\3hcn_nh3\3hcn_nh3_solvent_dft E -336.424012815819
  H      -0.658018      0.302716      1.306663
  C       0.330015      0.328799      0.860197
  N       1.397583      0.349950      0.407669
  H       3.425038      0.259368      0.290892
  C       4.519209      0.230335      0.276403
  N       5.675226      0.202980      0.260738
  H      -0.918337      4.346064      0.224557
  C       0.163220      4.356104      0.149838
  N       1.314977      4.371774      0.058122
  N      -0.015714      0.182375      3.888352
  H       0.618316     -0.460678      4.381484
  H      -0.763853      0.372382      4.562557
  H       0.512336      1.057831      3.832528
13
Coordinates from ORCA-job .\simulations\3hcn_nh3\3hcn_nh3_solvent_dft E -336.424455227795
  H      -0.586514      0.281826      1.372991
  C       0.384277      0.319052      0.896079
  N       1.447300      0.349547      0.443291
  H       3.467693      0.279976      0.238778
  C       4.560174      0.252300      0.183862
  N       5.715429      0.227292      0.128531
  H      -0.890144      4.316922      0.265380
  C       0.187498      4.325133      0.167371
  N       1.337528      4.340206      0.045381
  N      -0.105257      0.195288      3.911170
  H       0.523816     -0.439146      4.411518
  H      -0.861302      0.385642      4.574583
  H       0.419501      1.065962      3.861066
13
Coordinates from ORCA-job .\simulations\3hcn_nh3\3hcn_nh3_solvent_dft E -336.425219057825
  H      -0.486028      0.255536      1.486671
  C       0.458196      0.306089      0.957041
  N       1.511021      0.350925      0.479181
  H       3.528615      0.304170      0.165670
  C       4.617396      0.280488      0.062891
  N       5.769524      0.260099     -0.040640
  H      -0.855714      4.276578      0.325530
  C       0.215763      4.282198      0.187980
  N       1.361096      4.295865      0.026891
  N      -0.225179      0.220415      3.930921
  H       0.383692     -0.429876      4.434063
  H      -0.992186      0.413979      4.579889
  H       0.313805      1.083533      3.903912
13
Coordinates from ORCA-job .\simulations\3hcn_nh3\3hcn_nh3_solvent_dft E -336.426224686736
  H      -0.376332      0.231390      1.610577
  C       0.537467      0.292976      1.020672
  N       1.580736      0.352494      0.514508
  H       3.579779      0.327387      0.096805
  C       4.663302      0.306908     -0.051472
  N       5.810330      0.289489     -0.201822
  H      -0.822862      4.238944      0.378962
  C       0.242985      4.243181      0.207984
  N       1.382727      4.255787      0.009077
  N      -0.340031      0.243808      3.943169
  H       0.251153     -0.421371      4.450474
  H      -1.118740      0.436795      4.578709
  H       0.209486      1.102213      3.942357
13
Coordinates from ORCA-job .\simulations\3hcn_nh3\3hcn_nh3_solvent_dft E -336.427079051505
  H      -0.300949      0.216044      1.698696
  C       0.590254      0.281236      1.065903
  N       1.627397      0.350492      0.546087
  H       3.612846      0.343219      0.053817
  C       4.691482      0.325725     -0.126628
  N       5.833647      0.309917     -0.310061
  H      -0.801097      4.214433      0.415241
  C       0.261103      4.216601      0.221418
  N       1.396468      4.227031     -0.000812
  N      -0.414773      0.261416      3.945661
  H       0.160977     -0.416492      4.451187
  H      -1.200026      0.452876      4.574100
  H       0.142670      1.117503      3.965390
13
Coordinates from ORCA-job .\simulations\3hcn_nh3\3hcn_nh3_solvent_dft E -336.427715929147
  H      -0.250371      0.208188      1.759167
  C       0.627358      0.273422      1.101105
  N       1.659807      0.349184      0.572573
  H       3.633072      0.354072      0.027731
  C       4.707711      0.338039     -0.175629
  N       5.845685      0.322921     -0.382923
  H      -0.786541      4.198957      0.439554
  C       0.273048      4.198946      0.229104
  N       1.405193      4.207195     -0.008211
  N      -0.462768      0.273592      3.943694
  H       0.103378     -0.414919      4.447169
  H      -1.253174      0.462057      4.566893
  H       0.097602      1.128345      3.979771
13
Coordinates from ORCA-job .\simulations\3hcn_nh3\3hcn_nh3_solvent_dft E -336.427234318339
  H      -0.177613      0.186894      1.806753
  C       0.689698      0.245206      1.146405
  N       1.699867      0.339389      0.637328
  H       3.658572      0.370033      0.000172
  C       4.726617      0.354562     -0.241224
  N       5.854404      0.333320     -0.489910
  H      -0.780656      4.177956      0.466533
  C       0.288952      4.181512      0.238352
  N       1.417797      4.181775      0.006201
  N      -0.521382      0.305470      3.937610
  H       0.029632     -0.419742      4.423559
  H      -1.318589      0.472326      4.559553
  H       0.032702      1.171299      4.008669
13
Coordinates from ORCA-job .\simulations\3hcn_nh3\3hcn_nh3_solvent_dft E -336.429567957726
  H      -0.097630      0.196173      1.938472
  C       0.748473      0.251152      1.223079
  N       1.754103      0.346996      0.653108
  H       3.691528      0.381808     -0.048112
  C       4.752681      0.366411     -0.317856
  N       5.874257      0.348554     -0.596008
  H      -0.752348      4.158507      0.504409
  C       0.304504      4.154098      0.246756
  N       1.426858      4.152482     -0.020387
  N      -0.596194      0.309639      3.930641
  H      -0.051614     -0.411029      4.421808
  H      -1.406915      0.468744      4.534776
  H      -0.047702      1.176464      4.029314
13
Coordinates from ORCA-job .\simulations\3hcn_nh3\3hcn_nh3_solvent_dft E -336.430161671040
  H      -0.025671      0.208092      2.040372
  C       0.806865      0.252621      1.296375
  N       1.802786      0.352337      0.704809
  H       3.709334      0.397685     -0.074883
  C       4.761584      0.379958     -0.379244
  N       5.873520      0.357881     -0.693287
  H      -0.732879      4.138213      0.532228
  C       0.319327      4.129287      0.251589
  N       1.438261      4.121408     -0.034374
  N      -0.651186      0.320886      3.911895
  H      -0.115525     -0.411257      4.396440
  H      -1.473756      0.466200      4.504101
  H      -0.112659      1.186689      4.043977
13
Coordinates from ORCA-job .\simulations\3hcn_nh3\3hcn_nh3_solvent_dft E -336.429480748225
  H       0.031684      0.237745      2.085260
  C       0.902886      0.280161      1.430208
  N       1.859574      0.371804      0.766742
  H       3.710942      0.412566     -0.087634
  C       4.751048      0.382038     -0.435037
  N       5.852235      0.342219     -0.792265
  H      -0.718282      4.123045      0.544212
  C       0.321199      4.116328      0.249694
  N       1.450528      4.101483     -0.049477
  N      -0.684637      0.321964      3.897669
  H      -0.144817     -0.389670      4.391731
  H      -1.553066      0.437944      4.420901
  H      -0.179293      1.162372      4.077996
13
Coordinates from ORCA-job .\simulations\3hcn_nh3\3hcn_nh3_solvent_dft E -336.431418428796
  H       0.063065      0.212375      2.121284
  C       0.918928      0.254255      1.423820
  N       1.879242      0.353809      0.781152
  H       3.711641      0.415005     -0.094462
  C       4.746513      0.393909     -0.452223
  N       5.844787      0.362399     -0.818594
  H      -0.714518      4.102066      0.560381
  C       0.326522      4.095796      0.273944
  N       1.448088      4.085117     -0.025772
  N      -0.700433      0.341397      3.882235
  H      -0.177271     -0.386030      4.378088
  H      -1.574798      0.463296      4.394734
  H      -0.171766      1.206606      4.075413
13
Coordinates from ORCA-job .\simulations\3hcn_nh3\3hcn_nh3_solvent_dft E -336.431754148761
  H       0.108481      0.247496      2.192285
  C       0.945122      0.275864      1.438617
  N       1.901985      0.376272      0.791936
  H       3.718219      0.430521     -0.116063
  C       4.747701      0.402372     -0.489724
  N       5.836956      0.375245     -0.874201
  H      -0.693770      4.069767      0.554465
  C       0.357301      4.064347      0.275327
  N       1.467491      4.048741     -0.023639
  N      -0.729068      0.348300      3.882400
  H      -0.215105     -0.388502      4.378144
  H      -1.614259      0.439200      4.376881
  H      -0.231053      1.210377      4.113571
13
Coordinates from ORCA-job .\simulations\3hcn_nh3\3hcn_nh3_solvent_dft E -336.432581882988
  H       0.144157      0.251242      2.237324
  C       0.990773      0.276717      1.500657
  N       1.933378      0.370071      0.836846
  H       3.711644      0.437939     -0.117473
  C       4.730084      0.419192     -0.519455
  N       5.810460      0.391702     -0.931114
  H      -0.682177      4.045826      0.575721
  C       0.364469      4.033750      0.288306
  N       1.477225      4.013231     -0.016385
  N      -0.734794      0.369761      3.858368
  H      -0.252444     -0.385256      4.357825
  H      -1.653198      0.446345      4.296354
  H      -0.239579      1.229479      4.133023
13
Coordinates from ORCA-job .\simulations\3hcn_nh3\3hcn_nh3_solvent_dft E -336.433237567059
  H       0.180462      0.259206      2.264515
  C       1.053596      0.288583      1.561592
  N       1.975282      0.368251      0.870177
  H       3.719732      0.438502     -0.130202
  C       4.725082      0.425410     -0.565557
  N       5.793328      0.402388     -1.010087
  H      -0.671301      4.023998      0.590182
  C       0.372179      4.008496      0.304517
  N       1.487356      3.987911     -0.004081
  N      -0.747025      0.389980      3.857818
  H      -0.295116     -0.358707      4.391896
  H      -1.715598      0.419956      4.189148
  H      -0.277977      1.246026      4.180081
13
Coordinates from ORCA-job .\simulations\3hcn_nh3\3hcn_nh3_solvent_dft E -336.433775834368
  H       0.236589      0.292752      2.347880
  C       1.101002      0.311137      1.621853
  N       2.010946      0.377633      0.907918
  H       3.724833      0.440672     -0.139608
  C       4.718086      0.425382     -0.602827
  N       5.772960      0.401025     -1.078027
  H      -0.661486      4.011108      0.604390
  C       0.377446      3.984846      0.307178
  N       1.491140      3.961252     -0.008442
  N      -0.756308      0.406674      3.835986
  H      -0.337243     -0.362984      4.367276
  H      -1.744581      0.394416      4.103232
  H      -0.333383      1.256086      4.233189
13
Coordinates from ORCA-job .\simulations\3hcn_nh3\3hcn_nh3_solvent_dft E -336.434130444830
  H       0.270584      0.330167      2.383053
  C       1.110502      0.330381      1.621096
  N       2.012172      0.390157      0.912546
  H       3.726073      0.437013     -0.139179
  C       4.715415      0.421092     -0.614001
  N       5.761175      0.402599     -1.107183
  H      -0.655391      3.997326      0.607512
  C       0.381419      3.958420      0.308480
  N       1.493340      3.937498     -0.003233
  N      -0.734322      0.430911      3.829633
  H      -0.355239     -0.366095      4.356261
  H      -1.736421      0.378854      4.026242
  H      -0.389307      1.251678      4.318773
13
Coordinates from ORCA-job .\simulations\3hcn_nh3\3hcn_nh3_solvent_dft E -336.434532663983
  H       0.319262      0.355084      2.441644
  C       1.177642      0.353520      1.672812
  N       2.074011      0.396223      0.932289
  H       3.752802      0.438721     -0.169187
  C       4.725528      0.424533     -0.677500
  N       5.753772      0.408303     -1.207181
  H      -0.636186      3.971155      0.635700
  C       0.399686      3.924743      0.330552
  N       1.505761      3.904471      0.003827
  N      -0.776756      0.438084      3.833961
  H      -0.391723     -0.330229      4.395284
  H      -1.785148      0.345399      3.954261
  H      -0.518651      1.269992      4.353538
