13
Coordinates from ORCA-job .\3hcn_nh3\3hcn_nh3 E -334.825849596837
  H           0.75568011143050      0.05501728444051      2.56641827444661
  C           1.39966996689171     -0.04878636243121      1.69277916089415
  N           2.09643790595791     -0.16481069480335      0.82598325106912
  H           3.96763278051066     -0.18956366935094     -0.45131694443485
  C           4.89299286295777     -0.13859631546833     -0.98507548483490
  N           5.86829888638467     -0.07837572049612     -1.57873397940506
  H          -1.04312692816158      5.36759194995783      0.15982739497462
  C          -0.01209871078379      5.10936117352522      0.27877758437398
  N           1.08842137465507      4.82970646998972      0.40282614102037
  N          -0.67793587068097      0.25234686695642      4.17284733339334
  H          -0.58409939757559     -0.45611636567807      4.88794998117025
  H          -1.62850903414746      0.24013965725915      3.89767915710718
  H          -0.52336394743893      1.12208572609910      4.63003813022516
