13
Coordinates from ORCA-job .\3hcn_nh3\3hcn_nh3 E -334.760245031167
  H      -1.000000      0.000000      0.000000
  C       0.000000      0.000000      0.000000
  N       1.200000      0.000000      0.000000
  H       4.000000      0.000000      0.000000
  C       5.000000      0.000000      0.000000
  N       6.200000      0.000000      0.000000
  H      -1.000000      5.000000      0.000000
  C       0.000000      5.000000      0.000000
  N       1.200000      5.000000      0.000000
  N       0.000000      0.000000      5.000000
  H       0.900000      0.000000      5.500000
  H      -0.900000      0.000000      5.500000
  H       0.000000      0.900000      4.500000
13
Coordinates from ORCA-job .\3hcn_nh3\3hcn_nh3 E -334.807817394204
  H      -1.001563     -0.004383     -0.002306
  C       0.044751     -0.004028     -0.001625
  N       1.180928     -0.006913     -0.003150
  H       3.980331     -0.009189     -0.004184
  C       5.028116      0.009799     -0.004450
  N       6.164826      0.010746     -0.004680
  H      -1.004744      4.995928      0.004773
  C       0.040690      4.999105      0.004884
  N       1.178963      4.997164      0.004762
  N      -0.003048      0.007693      4.995574
  H       0.862276      0.006479      5.507171
  H      -0.870793      0.008412      5.503660
  H      -0.000731      0.889186      4.499571
13
Coordinates from ORCA-job .\3hcn_nh3\3hcn_nh3 E -334.811697746556
  H      -0.969029     -0.010214     -0.010423
  C       0.088789     -0.002222     -0.009826
  N       1.218790      0.003533     -0.007473
  H       3.914012     -0.008027      0.010359
  C       4.973733      0.001758      0.017497
  N       6.105098      0.009001      0.025344
  H      -1.012307      4.998068     -0.008833
  C       0.045070      5.008286     -0.002985
  N       1.175054      5.011734      0.004094
  N       0.014767      0.010784      4.971922
  H       0.849285     -0.006972      5.518672
  H      -0.824452     -0.000643      5.511610
  H       0.021189      0.884916      4.480042
13
Coordinates from ORCA-job .\3hcn_nh3\3hcn_nh3 E -334.813490930085
  H      -0.911875     -0.022480     -0.022828
  C       0.150809     -0.000827     -0.018072
  N       1.281006      0.018140     -0.012123
  H       3.814738      0.000510      0.031751
  C       4.879736      0.000248      0.050315
  N       6.011893     -0.001752      0.070231
  H      -1.017792      5.001592     -0.032247
  C       0.044597      5.019177     -0.012709
  N       1.175555      5.031501      0.004579
  N       0.041632      0.007884      4.939366
  H       0.848552     -0.026175      5.528913
  H      -0.774023     -0.010977      5.517773
  H       0.055172      0.883157      4.455051
13
Coordinates from ORCA-job .\3hcn_nh3\3hcn_nh3 E -334.814005280904
  H      -0.849856     -0.041856     -0.034247
  C       0.209959     -0.007939     -0.025709
  N       1.339981      0.023759     -0.015609
  H       3.711051      0.016367      0.052881
  C       4.774085      0.011914      0.083841
  N       5.906441     -0.000410      0.116732
  H      -1.008392      5.002468     -0.044234
  C       0.051618      5.023934     -0.024609
  N       1.182165      5.042297      0.004983
  N       0.067840      0.000728      4.917376
  H       0.866187     -0.042302      5.520683
  H      -0.743337     -0.011174      5.505121
  H       0.092258      0.882213      4.442790
13
Coordinates from ORCA-job .\3hcn_nh3\3hcn_nh3 E -334.814103010663
  H      -0.814244     -0.056012     -0.034163
  C       0.243439     -0.013452     -0.024334
  N       1.373965      0.027462     -0.013727
  H       3.654896      0.023505      0.064723
  C       4.716882      0.011649      0.101291
  N       5.849369     -0.002018      0.140708
  H      -1.006728      5.010343     -0.085591
  C       0.048853      5.032211     -0.015639
  N       1.180987      5.054733      0.017790
  N       0.081043     -0.005209      4.903921
  H       0.878510     -0.064707      5.508861
  H      -0.729898     -0.002135      5.493791
  H       0.122927      0.883629      4.442369
13
Coordinates from ORCA-job .\3hcn_nh3\3hcn_nh3 E -334.814184657984
  H      -0.807748     -0.063905     -0.035471
  C       0.248934     -0.018060     -0.030794
  N       1.379871      0.026861     -0.023951
  H       3.641056      0.022898      0.073045
  C       4.702447      0.006056      0.119082
  N       5.834917     -0.007087      0.167956
  H      -1.013850      5.017831     -0.055337
  C       0.042477      5.035894     -0.032219
  N       1.175377      5.059281      0.011961
  N       0.087225     -0.004080      4.891145
  H       0.888049     -0.079265      5.491005
  H      -0.722602      0.013455      5.483336
  H       0.143847      0.890122      4.440241
13
Coordinates from ORCA-job .\3hcn_nh3\3hcn_nh3 E -334.814273026013
  H      -0.823777     -0.065137     -0.027493
  C       0.233697     -0.021048     -0.027090
  N       1.364186      0.022278     -0.025008
  H       3.661037      0.020725      0.072853
  C       4.722947      0.007448      0.118714
  N       5.855373     -0.009219      0.167448
  H      -1.017700      5.025358     -0.061542
  C       0.039368      5.039442     -0.029236
  N       1.170874      5.059868      0.014092
  N       0.082266     -0.002828      4.888240
  H       0.884489     -0.095106      5.483516
  H      -0.724731      0.025473      5.483694
  H       0.151972      0.892747      4.441811
13
Coordinates from ORCA-job .\3hcn_nh3\3hcn_nh3 E -334.814340885545
  H      -0.827180     -0.069815     -0.021790
  C       0.230884     -0.024347     -0.025523
  N       1.361035      0.020820     -0.028942
  H       3.663265      0.021631      0.074450
  C       4.725393      0.007462      0.122843
  N       5.857287     -0.011666      0.174721
  H      -1.021521      5.030971     -0.069351
  C       0.036017      5.042746     -0.026122
  N       1.167213      5.060328      0.018339
  N       0.080413     -0.000469      4.881887
  H       0.882967     -0.115021      5.472319
  H      -0.721971      0.039200      5.482409
  H       0.166199      0.898161      4.444760
13
Coordinates from ORCA-job .\3hcn_nh3\3hcn_nh3 E -334.814440388395
  H      -0.831156     -0.077119     -0.012784
  C       0.227289     -0.028689     -0.025002
  N       1.357120      0.020238     -0.038255
  H       3.665917      0.023635      0.077003
  C       4.727987      0.005544      0.131132
  N       5.859341     -0.017117      0.189172
  H      -1.028057      5.039406     -0.075789
  C       0.029809      5.047199     -0.023811
  N       1.160884      5.059472      0.024088
  N       0.078088      0.004794      4.871155
  H       0.882151     -0.144860      5.451454
  H      -0.716141      0.058682      5.480998
  H       0.186769      0.908815      4.450638
13
Coordinates from ORCA-job .\3hcn_nh3\3hcn_nh3 E -334.814597398270
  H      -0.832726     -0.089539      0.001325
  C       0.225600     -0.035011     -0.025595
  N       1.354800      0.021189     -0.055336
  H       3.665595      0.028620      0.080612
  C       4.727096      0.002623      0.145003
  N       5.857515     -0.028024      0.214121
  H      -1.037542      5.051824     -0.082267
  C       0.020359      5.053287     -0.021531
  N       1.151340      5.056113      0.032750
  N       0.075592      0.015116      4.854086
  H       0.881866     -0.187504      5.415260
  H      -0.704593      0.083941      5.480211
  H       0.215096      0.927365      4.461362
13
Coordinates from ORCA-job .\3hcn_nh3\3hcn_nh3 E -334.814837930276
  H      -0.829381     -0.110202      0.023948
  C       0.227493     -0.044255     -0.027443
  N       1.355232      0.024844     -0.083695
  H       3.662534      0.037924      0.085150
  C       4.722316     -0.003349      0.166194
  N       5.851064     -0.048894      0.253069
  H      -1.052019      5.071003     -0.086850
  C       0.005306      5.061806     -0.018720
  N       1.136138      5.048800      0.045950
  N       0.072643      0.034457      4.827732
  H       0.880257     -0.245314      5.354121
  H      -0.684163      0.115428      5.480936
  H       0.252580      0.957752      4.479608
13
Coordinates from ORCA-job .\3hcn_nh3\3hcn_nh3 E -334.815158711901
  H      -0.816797     -0.144998      0.061223
  C       0.236049     -0.059965     -0.027957
  N       1.360316      0.029668     -0.123356
  H       3.655178      0.052819      0.091652
  C       4.711358     -0.011876      0.196335
  N       5.836792     -0.083566      0.308425
  H      -1.073192      5.100178     -0.086789
  C      -0.017407      5.072956     -0.011633
  N       1.112453      5.036331      0.067679
  N       0.069510      0.068145      4.786322
  H       0.869598     -0.319816      5.255552
  H      -0.651862      0.159247      5.478603
  H       0.308006      1.000877      4.503945
13
Coordinates from ORCA-job .\3hcn_nh3\3hcn_nh3 E -334.815453954694
  H      -0.801118     -0.184790      0.105658
  C       0.245939     -0.080659     -0.020215
  N       1.365138      0.028548     -0.152187
  H       3.649974      0.064361      0.100752
  C       4.702104     -0.021697      0.224928
  N       5.823713     -0.118164      0.357765
  H      -1.095646      5.132162     -0.078805
  C      -0.041880      5.085141      0.002047
  N       1.086449      5.027158      0.093218
  N       0.067766      0.104816      4.738415
  H       0.846401     -0.379110      5.151984
  H      -0.621037      0.207766      5.462599
  H       0.372197      1.034468      4.513842
13
Coordinates from ORCA-job .\3hcn_nh3\3hcn_nh3 E -334.815778948131
  H      -0.782753     -0.226327      0.153710
  C       0.257253     -0.105134     -0.004243
  N       1.370223      0.020877     -0.167438
  H       3.647526      0.073001      0.108895
  C       4.696201     -0.029653      0.246154
  N       5.814247     -0.147058      0.392949
  H      -1.116191      5.163365     -0.063407
  C      -0.064624      5.095437      0.021613
  N       1.061550      5.019583      0.120363
  N       0.063436      0.141955      4.690861
  H       0.810244     -0.420380      5.055896
  H      -0.600397      0.260602      5.434817
  H       0.443285      1.053732      4.509830
13
Coordinates from ORCA-job .\3hcn_nh3\3hcn_nh3 E -334.816058330794
  H      -0.771235     -0.260750      0.208023
  C       0.263659     -0.127818      0.023431
  N       1.370674      0.010102     -0.167138
  H       3.651078      0.078599      0.116773
  C       4.698445     -0.034764      0.259749
  N       5.813778     -0.164562      0.412936
  H      -1.132718      5.184504     -0.044863
  C      -0.082226      5.098193      0.048374
  N       1.042106      5.007753      0.149009
  N       0.058989      0.180016      4.639316
  H       0.766406     -0.451712      4.969482
  H      -0.587317      0.315070      5.395720
  H       0.508361      1.065369      4.489188
13
Coordinates from ORCA-job .\3hcn_nh3\3hcn_nh3 E -334.816321954390
  H      -0.754448     -0.293830      0.271185
  C       0.274432     -0.151630      0.062079
  N       1.374241     -0.002254     -0.158219
  H       3.662394      0.083740      0.116647
  C       4.708681     -0.041508      0.259726
  N       5.822727     -0.180913      0.413632
  H      -1.147025      5.207010     -0.019522
  C      -0.097709      5.102412      0.073586
  N       1.025560      4.994542      0.172126
  N       0.046770      0.218031      4.592622
  H       0.717045     -0.468211      4.887376
  H      -0.584626      0.357116      5.359007
  H       0.551959      1.075496      4.469756
13
Coordinates from ORCA-job .\3hcn_nh3\3hcn_nh3 E -334.816521729528
  H      -0.737969     -0.319093      0.324308
  C       0.285642     -0.169916      0.093349
  N       1.379525     -0.012035     -0.149541
  H       3.668110      0.087750      0.116501
  C       4.713644     -0.044790      0.259209
  N       5.826442     -0.193955      0.412801
  H      -1.156757      5.221794      0.000698
  C      -0.108413      5.105203      0.093933
  N       1.013619      4.983558      0.190281
  N       0.039094      0.246808      4.552851
  H       0.677686     -0.480020      4.820399
  H      -0.579843      0.388440      5.330055
  H       0.579220      1.086256      4.455156
13
Coordinates from ORCA-job .\3hcn_nh3\3hcn_nh3 E -334.816708465788
  H      -0.710203     -0.337102      0.386895
  C       0.307582     -0.187434      0.137267
  N       1.396022     -0.025444     -0.122952
  H       3.685197      0.091497      0.093383
  C       4.732277     -0.039789      0.223017
  N       5.846379     -0.193911      0.362562
  H      -1.154557      5.233708      0.020605
  C      -0.106680      5.107660      0.106459
  N       1.013782      4.971649      0.192299
  N       0.006922      0.266661      4.537926
  H       0.624325     -0.482906      4.784035
  H      -0.607766      0.400219      5.319592
  H       0.566719      1.095193      4.458910
13
Coordinates from ORCA-job .\3hcn_nh3\3hcn_nh3 E -334.816999898850
  H      -0.678970     -0.360280      0.476623
  C       0.332199     -0.209252      0.201300
  N       1.413994     -0.043150     -0.086601
  H       3.711508      0.094044      0.066460
  C       4.760069     -0.038612      0.179715
  N       5.875801     -0.195090      0.302283
  H      -1.154401      5.249758      0.052331
  C      -0.108298      5.108230      0.127305
  N       1.010441      4.952864      0.200968
  N      -0.032892      0.295380      4.506128
  H       0.559659     -0.483978      4.726755
  H      -0.642336      0.422952      5.292732
  H       0.553226      1.107134      4.454000
13
Coordinates from ORCA-job .\3hcn_nh3\3hcn_nh3 E -334.817319018952
  H      -0.627780     -0.370398      0.599143
  C       0.379961     -0.228025      0.303276
  N       1.457881     -0.068698     -0.010371
  H       3.770377      0.091489     -0.010760
  C       4.823707     -0.028961      0.060189
  N       5.945661     -0.168074      0.139101
  H      -1.132808      5.263392      0.088606
  C      -0.089845      5.103092      0.139065
  N       1.027279      4.925089      0.188182
  N      -0.130085      0.313163      4.509390
  H       0.461841     -0.475751      4.723454
  H      -0.750511      0.425810      5.288251
  H       0.464324      1.117872      4.482474
13
Coordinates from ORCA-job .\3hcn_nh3\3hcn_nh3 E -334.817553465161
  H      -0.595518     -0.380992      0.671915
  C       0.406994     -0.240689      0.357361
  N       1.480725     -0.082276      0.026001
  H       3.794288      0.091350     -0.043960
  C       4.848967     -0.025707      0.008942
  N       5.972491     -0.160880      0.069176
  H      -1.126691      5.272620      0.110444
  C      -0.085363      5.100555      0.150514
  N       1.030293      4.908306      0.188937
  N      -0.172214      0.328330      4.496284
  H       0.405618     -0.474110      4.694322
  H      -0.791990      0.436614      5.277291
  H       0.432399      1.126878      4.492773
13
Coordinates from ORCA-job .\3hcn_nh3\3hcn_nh3 E -334.817734442116
  H      -0.558347     -0.374439      0.731125
  C       0.443601     -0.243903      0.411734
  N       1.519113     -0.103570      0.092630
  H       3.826216      0.073824     -0.100264
  C       4.885944     -0.015128     -0.081964
  N       6.013967     -0.116901     -0.057856
  H      -1.106465      5.266805      0.121387
  C      -0.063272      5.089191      0.154426
  N       1.053055      4.897544      0.182604
  N      -0.235343      0.323141      4.511365
  H       0.329805     -0.470502      4.730349
  H      -0.874483      0.444137      5.278801
  H       0.366209      1.129799      4.525662
13
Coordinates from ORCA-job .\3hcn_nh3\3hcn_nh3 E -334.818074264425
  H      -0.513361     -0.374139      0.815047
  C       0.487807     -0.251195      0.488291
  N       1.561952     -0.117825      0.153477
  H       3.850518      0.067901     -0.148585
  C       4.911458     -0.006299     -0.160703
  N       6.040978     -0.095636     -0.168343
  H      -1.089669      5.271571      0.139983
  C      -0.047963      5.084701      0.160828
  N       1.066708      4.882208      0.173909
  N      -0.295601      0.328597      4.509031
  H       0.271363     -0.465911      4.735678
  H      -0.949378      0.442462      5.263049
  H       0.305187      1.133565      4.538339
13
Coordinates from ORCA-job .\3hcn_nh3\3hcn_nh3 E -334.818404630707
  H      -0.467135     -0.366060      0.897090
  C       0.534457     -0.254060      0.566513
  N       1.607862     -0.132166      0.222854
  H       3.868902      0.054008     -0.192761
  C       4.930228      0.000366     -0.237884
  N       6.060746     -0.066460     -0.279655
  H      -1.072554      5.273574      0.154780
  C      -0.031765      5.080714      0.164449
  N       1.081729      4.873439      0.165781
  N      -0.350504      0.327477      4.504414
  H       0.217716     -0.463409      4.756960
  H      -1.027601      0.440859      5.235019
  H       0.247921      1.131717      4.542439
13
Coordinates from ORCA-job .\3hcn_nh3\3hcn_nh3 E -334.818883473503
  H      -0.399374     -0.353004      1.019721
  C       0.599568     -0.256731      0.676255
  N       1.670773     -0.149998      0.316795
  H       3.889110      0.033929     -0.247201
  C       4.948901      0.007605     -0.335693
  N       6.078288     -0.030112     -0.422361
  H      -1.052180      5.277209      0.174701
  C      -0.012679      5.075301      0.170732
  N       1.099237      4.859429      0.158726
  N      -0.417977      0.326570      4.487783
  H       0.145327     -0.459875      4.769249
  H      -1.124969      0.438101      5.187732
  H       0.175974      1.131574      4.543560
13
Coordinates from ORCA-job .\3hcn_nh3\3hcn_nh3 E -334.819392158491
  H      -0.319302     -0.318421      1.141022
  C       0.676173     -0.248659      0.785392
  N       1.743765     -0.166888      0.412352
  H       3.891939     -0.000579     -0.295868
  C       4.947340      0.014855     -0.431304
  N       6.072712      0.025516     -0.566518
  H      -1.026013      5.276377      0.180668
  C       0.013700      5.070622      0.163599
  N       1.124910      4.856547      0.149421
  N      -0.475993      0.307171      4.478195
  H       0.078258     -0.457713      4.826593
  H      -1.233635      0.423039      5.118592
  H       0.106147      1.118131      4.537857
13
Coordinates from ORCA-job .\3hcn_nh3\3hcn_nh3 E -334.819877050769
  H      -0.239077     -0.294294      1.274443
  C       0.750697     -0.241706      0.899492
  N       1.814537     -0.177445      0.502161
  H       3.906804     -0.025763     -0.346251
  C       4.954868      0.018438     -0.525675
  N       6.073304      0.059678     -0.706177
  H      -1.007775      5.279067      0.195161
  C       0.030310      5.064011      0.167466
  N       1.141369      4.841129      0.144662
  N      -0.537781      0.301856      4.457929
  H       0.005813     -0.454837      4.840213
  H      -1.328365      0.413798      5.056842
  H       0.035298      1.116068      4.539734
13
Coordinates from ORCA-job .\3hcn_nh3\3hcn_nh3 E -334.820366283401
  H      -0.166111     -0.262558      1.409400
  C       0.803269     -0.234780      0.980222
  N       1.844157     -0.205648      0.512060
  H       3.924286     -0.059823     -0.402972
  C       4.965186      0.026521     -0.600106
  N       6.079592      0.106347     -0.797061
  H      -0.993140      5.282345      0.190148
  C       0.041288      5.053788      0.171172
  N       1.156856      4.820802      0.167603
  N      -0.573932      0.290618      4.448537
  H      -0.061238     -0.451746      4.889432
  H      -1.412249      0.421971      4.982372
  H      -0.007963      1.112165      4.549192
13
Coordinates from ORCA-job .\3hcn_nh3\3hcn_nh3 E -334.821082196807
  H      -0.124673     -0.244678      1.502861
  C       0.830637     -0.233544      1.039903
  N       1.865181     -0.216063      0.555580
  H       3.906101     -0.085398     -0.396849
  C       4.942101      0.020342     -0.611563
  N       6.050945      0.121281     -0.827866
  H      -0.994532      5.287671      0.191717
  C       0.039990      5.060280      0.180740
  N       1.154262      4.827869      0.182020
  N      -0.564520      0.283201      4.400976
  H      -0.067647     -0.450666      4.883121
  H      -1.425741      0.422850      4.892088
  H      -0.012103      1.106856      4.507272
13
Coordinates from ORCA-job .\3hcn_nh3\3hcn_nh3 E -334.821530518563
  H      -0.109113     -0.242047      1.540532
  C       0.785238     -0.255398      0.972948
  N       1.790591     -0.240418      0.467809
  H       3.870752     -0.102573     -0.353421
  C       4.911958      0.010880     -0.538800
  N       6.022184      0.133572     -0.728849
  H      -1.005563      5.291432      0.169502
  C       0.025796      5.071552      0.195062
  N       1.132979      4.841634      0.226361
  N      -0.483339      0.279660      4.367043
  H      -0.018448     -0.448829      4.899441
  H      -1.369063      0.445956      4.806075
  H       0.046028      1.114580      4.476298
13
Coordinates from ORCA-job .\3hcn_nh3\3hcn_nh3 E -334.822559798589
  H      -0.067179     -0.234049      1.618189
  C       0.818565     -0.255662      1.030658
  N       1.805770     -0.257678      0.465949
  H       3.873255     -0.117627     -0.378018
  C       4.911925      0.009653     -0.568308
  N       6.020074      0.148564     -0.762726
  H      -1.006943      5.291314      0.177443
  C       0.025032      5.064868      0.207538
  N       1.130679      4.831461      0.244616
  N      -0.495848      0.284432      4.345267
  H      -0.064016     -0.442692      4.895210
  H      -1.397737      0.461034      4.749778
  H       0.046422      1.116382      4.474403
13
Coordinates from ORCA-job .\3hcn_nh3\3hcn_nh3 E -334.823016510860
  H      -0.048209     -0.224823      1.667961
  C       0.826239     -0.256537      1.064038
  N       1.797485     -0.270112      0.470251
  H       3.883632     -0.126205     -0.392086
  C       4.919955      0.011435     -0.586342
  N       6.026864      0.155191     -0.783995
  H      -1.008430      5.295156      0.181132
  C       0.023011      5.064208      0.213191
  N       1.129550      4.820677      0.255769
  N      -0.497307      0.287742      4.331615
  H      -0.084466     -0.437973      4.893799
  H      -1.411406      0.463211      4.708848
  H       0.043084      1.118029      4.475818
13
Coordinates from ORCA-job .\3hcn_nh3\3hcn_nh3 E -334.823717920162
  H      -0.004848     -0.216317      1.741371
  C       0.850744     -0.260652      1.113635
  N       1.796109     -0.287738      0.481893
  H       3.890182     -0.138010     -0.404972
  C       4.923009      0.009693     -0.611461
  N       6.026353      0.163530     -0.821884
  H      -1.011411      5.299031      0.191298
  C       0.019486      5.061896      0.227390
  N       1.124121      4.805382      0.273286
  N      -0.499237      0.296941      4.304181
  H      -0.122009     -0.428253      4.885614
  H      -1.431203      0.469269      4.634300
  H       0.038704      1.125227      4.485350
13
Coordinates from ORCA-job .\3hcn_nh3\3hcn_nh3 E -334.824685916414
  H       0.090899     -0.186056      1.879967
  C       0.907146     -0.256941      1.198458
  N       1.815424     -0.308221      0.514518
  H       3.901801     -0.161261     -0.432837
  C       4.925289      0.005752     -0.670640
  N       6.017837      0.183881     -0.914816
  H      -1.005509      5.301293      0.202777
  C       0.023937      5.056073      0.244248
  N       1.125541      4.784717      0.292855
  N      -0.520276      0.296563      4.271030
  H      -0.188614     -0.412534      4.893295
  H      -1.481425      0.464812      4.516539
  H      -0.012049      1.131923      4.504606
13
Coordinates from ORCA-job .\3hcn_nh3\3hcn_nh3 E -334.824713331439
  H       0.205223     -0.162094      1.998392
  C       0.974217     -0.245915      1.289460
  N       1.817832     -0.316954      0.558389
  H       3.925035     -0.156802     -0.441591
  C       4.938504     -0.006303     -0.730687
  N       6.018975      0.156650     -1.030412
  H      -1.005086      5.311634      0.229718
  C       0.021403      5.052790      0.267753
  N       1.115767      4.756138      0.299468
  N      -0.542152      0.309813      4.233538
  H      -0.236394     -0.392261      4.866539
  H      -1.528663      0.431302      4.406433
  H      -0.104663      1.162002      4.553000
13
Coordinates from ORCA-job .\3hcn_nh3\3hcn_nh3 E -334.826255343102
  H       0.289024     -0.126838      2.118576
  C       1.028184     -0.234313      1.348478
  N       1.854846     -0.321439      0.575890
  H       3.925211     -0.167378     -0.463902
  C       4.930748     -0.012222     -0.773069
  N       6.003724      0.159224     -1.095737
  H      -0.995718      5.318706      0.241389
  C       0.026960      5.048193      0.270381
  N       1.117336      4.742957      0.298090
  N      -0.570827      0.313426      4.218649
  H      -0.283998     -0.396969      4.855011
  H      -1.564318      0.403937      4.344201
  H      -0.161172      1.172716      4.562045
13
Coordinates from ORCA-job .\3hcn_nh3\3hcn_nh3 E -334.826605805132
  H       0.323710     -0.102833      2.165683
  C       1.062341     -0.215755      1.397425
  N       1.879530     -0.313289      0.610343
  H       3.915828     -0.175309     -0.458604
  C       4.914234     -0.015807     -0.788619
  N       5.979693      0.156548     -1.134867
  H      -0.990716      5.325162      0.239683
  C       0.031836      5.050684      0.265750
  N       1.122834      4.746657      0.293914
  N      -0.576556      0.301680      4.206711
  H      -0.290964     -0.404466      4.855511
  H      -1.575990      0.387629      4.298140
  H      -0.195780      1.159098      4.548928
13
Coordinates from ORCA-job .\3hcn_nh3\3hcn_nh3 E -334.827108371538
  H       0.382876     -0.081155      2.227929
  C       1.099296     -0.205123      1.435306
  N       1.892461     -0.313279      0.627805
  H       3.887727     -0.169877     -0.433696
  C       4.883262     -0.023282     -0.778975
  N       5.946634      0.124169     -1.142535
  H      -0.999209      5.346975      0.242865
  C       0.019591      5.056122      0.269925
  N       1.109757      4.743174      0.299165
  N      -0.568793      0.305766      4.174135
  H      -0.284334     -0.424214      4.807538
  H      -1.570799      0.370910      4.236262
  H      -0.198470      1.169814      4.534275
13
Coordinates from ORCA-job .\3hcn_nh3\3hcn_nh3 E -334.827363646250
  H       0.428310     -0.056211      2.302346
  C       1.136470     -0.188701      1.497869
  N       1.916714     -0.306054      0.679506
  H       3.889715     -0.179114     -0.426287
  C       4.875774     -0.042780     -0.803023
  N       5.928358      0.102375     -1.197830
  H      -1.006571      5.359109      0.248939
  C       0.010960      5.063809      0.280148
  N       1.098526      4.747163      0.306351
  N      -0.569891      0.306476      4.140457
  H      -0.304759     -0.419133      4.782399
  H      -1.570861      0.346172      4.157932
  H      -0.232746      1.166889      4.531195
13
Coordinates from ORCA-job .\3hcn_nh3\3hcn_nh3 E -334.823629156153
  H       0.528870     -0.009839      2.305343
  C       1.227904     -0.127083      1.535969
  N       1.993682     -0.231856      0.747886
  H       3.854749     -0.165690     -0.365761
  C       4.826742     -0.094436     -0.801300
  N       5.861525      0.016803     -1.251740
  H      -1.022069      5.366421      0.220974
  C      -0.012179      5.073140      0.277824
  N       1.077985      4.803287      0.321062
  N      -0.584761      0.278196      4.135371
  H      -0.329843     -0.460006      4.775635
  H      -1.576380      0.328926      4.081133
  H      -0.246224      1.122137      4.517604
13
Coordinates from ORCA-job .\3hcn_nh3\3hcn_nh3 E -334.827472037616
  H       0.528049     -0.014910      2.354654
  C       1.227964     -0.140748      1.558562
  N       1.984789     -0.262732      0.722166
  H       3.875043     -0.182787     -0.404255
  C       4.847717     -0.076048     -0.826914
  N       5.882226      0.051650     -1.272233
  H      -1.017537      5.358581      0.237667
  C      -0.001683      5.068166      0.282542
  N       1.089834      4.776224      0.319186
  N      -0.593154      0.285071      4.133036
  H      -0.353712     -0.438333      4.789760
  H      -1.594299      0.333418      4.073614
  H      -0.275238      1.142447      4.532215
13
Coordinates from ORCA-job .\3hcn_nh3\3hcn_nh3 E -334.827444230282
  H       0.461282     -0.047259      2.333916
  C       1.175643     -0.172659      1.540887
  N       1.951699     -0.287833      0.725779
  H       3.912114     -0.177478     -0.427505
  C       4.888935     -0.063845     -0.833532
  N       5.931699      0.048654     -1.263429
  H      -1.022817      5.371751      0.255882
  C      -0.005144      5.079964      0.288110
  N       1.084839      4.764481      0.313933
  N      -0.588556      0.305106      4.133824
  H      -0.322294     -0.419819      4.771933
  H      -1.588586      0.317987      4.128706
  H      -0.278814      1.180949      4.531496
13
Coordinates from ORCA-job .\3hcn_nh3\3hcn_nh3 E -334.807401691003
  H       0.727545      0.042599      2.592394
  C       1.407036     -0.079169      1.629651
  N       2.116821     -0.194434      0.718811
  H       4.017846     -0.192948     -0.524524
  C       4.950777     -0.133418     -1.041710
  N       5.943202     -0.034572     -1.585296
  H      -1.012661      5.358958      0.186477
  C      -0.009520      5.070871      0.287226
  N       1.079618      4.798531      0.396243
  N      -0.728399      0.275816      4.243164
  H      -0.588884     -0.384873      4.984910
  H      -1.719570      0.297496      3.928216
  H      -0.583813      1.075142      4.684436
13
Coordinates from ORCA-job .\3hcn_nh3\3hcn_nh3 E -334.821931376942
  H       0.761109      0.039429      2.547800
  C       1.377797     -0.060558      1.679088
  N       2.088170     -0.184032      0.768936
  H       3.990391     -0.194738     -0.488713
  C       4.911030     -0.139215     -1.002167
  N       5.887701     -0.048996     -1.545750
  H      -1.021594      5.370097      0.175975
  C      -0.010062      5.086762      0.280156
  N       1.074769      4.816307      0.391635
  N      -0.698210      0.242113      4.183986
  H      -0.562089     -0.428327      4.915353
  H      -1.652293      0.261989      3.893198
  H      -0.546717      1.139169      4.700501
13
Coordinates from ORCA-job .\3hcn_nh3\3hcn_nh3 E -334.810574448505
  H       0.750382      0.036852      2.564637
  C       1.365414     -0.060776      1.702570
  N       2.079285     -0.178340      0.835816
  H       3.969054     -0.198202     -0.474790
  C       4.931463     -0.119483     -1.001536
  N       5.950853     -0.050467     -1.649835
  H      -1.033764      5.364255      0.164934
  C       0.000174      5.087725      0.277730
  N       1.094792      4.817471      0.397300
  N      -0.708619      0.245410      4.185483
  H      -0.593443     -0.449256      4.917388
  H      -1.670964      0.258008      3.911976
  H      -0.534626      1.146804      4.668328
13
Coordinates from ORCA-job .\3hcn_nh3\3hcn_nh3 E -334.824568563466
  H       0.763327      0.041935      2.557440
  C       1.389664     -0.058489      1.680396
  N       2.095932     -0.168248      0.832416
  H       3.973814     -0.191592     -0.465698
  C       4.908431     -0.134745     -1.005138
  N       5.880276     -0.051256     -1.581800
  H      -1.039622      5.362179      0.162609
  C      -0.005087      5.098029      0.275019
  N       1.098838      4.819910      0.398662
  N      -0.691723      0.250992      4.187086
  H      -0.590925     -0.447243      4.908046
  H      -1.664185      0.259968      3.908308
  H      -0.518740      1.118559      4.642653
13
Coordinates from ORCA-job .\3hcn_nh3\3hcn_nh3 E -334.824642008133
  H       0.764520      0.040128      2.558279
  C       1.383552     -0.054910      1.715154
  N       2.102657     -0.173118      0.818856
  H       3.983676     -0.190624     -0.477237
  C       4.904867     -0.127999     -0.999681
  N       5.862400     -0.047690     -1.578171
  H      -1.013397      5.360085      0.164988
  C      -0.004991      5.092525      0.275228
  N       1.082774      4.821875      0.389110
  N      -0.698868      0.246614      4.183895
  H      -0.596765     -0.442043      4.891424
  H      -1.645262      0.256794      3.916193
  H      -0.525164      1.118363      4.641962
13
Coordinates from ORCA-job .\3hcn_nh3\3hcn_nh3 E -334.826023741559
  H       0.761583      0.056243      2.575354
  C       1.394736     -0.046010      1.720357
  N       2.096881     -0.166156      0.831923
  H       3.977635     -0.189099     -0.464072
  C       4.890803     -0.131761     -0.987331
  N       5.853889     -0.072704     -1.585391
  H      -1.020961      5.363844      0.156152
  C      -0.008221      5.105324      0.278190
  N       1.079383      4.827001      0.401026
  N      -0.670594      0.250230      4.168496
  H      -0.574286     -0.449882      4.890793
  H      -1.666230      0.222873      3.867428
  H      -0.514618      1.130097      4.647075
13
Coordinates from ORCA-job .\3hcn_nh3\3hcn_nh3 E -334.825849596837
  H       0.755680      0.055017      2.566418
  C       1.399670     -0.048786      1.692779
  N       2.096438     -0.164811      0.825983
  H       3.967633     -0.189564     -0.451317
  C       4.892993     -0.138596     -0.985075
  N       5.868299     -0.078376     -1.578734
  H      -1.043127      5.367592      0.159827
  C      -0.012099      5.109361      0.278778
  N       1.088421      4.829706      0.402826
  N      -0.677936      0.252347      4.172847
  H      -0.584099     -0.456116      4.887950
  H      -1.628509      0.240140      3.897679
  H      -0.523364      1.122086      4.630038
