12
Coordinates from ORCA-job .\4hcn\4hcn E -371.442347517426
  H      -1.000000      0.000000      0.000000
  C       0.000000      0.000000      0.000000
  N       1.200000      0.000000      0.000000
  H       4.000000      0.000000      0.000000
  C       5.000000      0.000000      0.000000
  N       6.200000      0.000000      0.000000
  H       0.000000      5.000000      0.000000
  C       1.000000      5.000000      0.000000
  N       2.200000      5.000000      0.000000
  H       0.000000      0.000000      5.000000
  C       1.000000      0.000000      5.000000
  N       2.200000      0.000000      5.000000
12
Coordinates from ORCA-job .\4hcn\4hcn E -371.498390513179
  H      -1.002923     -0.000339     -0.000328
  C       0.037098     -0.002017     -0.002066
  N       1.179267     -0.000696     -0.000906
  H       3.983938     -0.003082     -0.002230
  C       5.026433      0.002737      0.002407
  N       6.169475      0.002024      0.001627
  H      -0.007475      5.001991     -0.002388
  C       1.033492      5.001457     -0.001268
  N       2.177457      5.001944     -0.000363
  H      -0.007566     -0.002520      5.002051
  C       1.033428     -0.001267      5.001500
  N       2.177377     -0.000233      5.001964
12
Coordinates from ORCA-job .\4hcn\4hcn E -371.500852785723
  H      -0.991139     -0.007970     -0.007771
  C       0.064993     -0.005625     -0.005469
  N       1.194757     -0.001060     -0.000966
  H       3.957897     -0.003105     -0.003017
  C       5.016421      0.001706      0.001586
  N       6.147357     -0.000125     -0.000545
  H      -0.012109      5.005101     -0.002728
  C       1.043757      5.005679     -0.000016
  N       2.173526      5.006879      0.001265
  H      -0.012346     -0.002818      5.005114
  C       1.043544     -0.000055      5.005680
  N       2.173342      0.001393      5.006867
12
Coordinates from ORCA-job .\4hcn\4hcn E -371.501142024159
  H      -0.966361     -0.017426     -0.014784
  C       0.092885     -0.008306     -0.005672
  N       1.224790      0.000928      0.003607
  H       3.914639      0.007320      0.004817
  C       4.976787      0.009160      0.008219
  N       6.109676      0.003979      0.003512
  H      -0.007949      4.995391      0.003080
  C       1.050783      4.995544      0.005996
  N       2.183150      4.996052      0.008287
  H      -0.009482      0.002634      4.993894
  C       1.049326      0.005801      4.994200
  N       2.181755      0.008923      4.994845
12
Coordinates from ORCA-job .\4hcn\4hcn E -371.501483530768
  H      -0.910929     -0.046586     -0.039667
  C       0.149934     -0.021443     -0.014283
  N       1.282790     -0.000185      0.007332
  H       3.836697      0.022938      0.014531
  C       4.901792      0.017281      0.014346
  N       6.036107      0.004440      0.004042
  H       0.000961      4.997327      0.005959
  C       1.061529      4.995934      0.012409
  N       2.195560      4.995209      0.016724
  H      -0.003278      0.003628      4.993591
  C       1.057389      0.012527      4.992638
  N       2.191448      0.018929      4.992375
12
Coordinates from ORCA-job .\4hcn\4hcn E -371.501855832284
  H      -0.830728     -0.098332     -0.086194
  C       0.228412     -0.050041     -0.037099
  N       1.356777     -0.008598      0.005198
  H       3.741193      0.041402      0.023337
  C       4.804453      0.022329      0.015849
  N       5.939496     -0.002317     -0.002184
  H       0.013040      5.019934      0.011158
  C       1.072697      5.014361      0.015722
  N       2.206219      5.011467      0.022895
  H       0.005163      0.009015      5.014350
  C       1.064900      0.014840      5.009505
  N       2.198378      0.025939      5.007462
12
Coordinates from ORCA-job .\4hcn\4hcn E -371.501970923107
  H      -0.788019     -0.136935     -0.121286
  C       0.268116     -0.075710     -0.059058
  N       1.396852     -0.018546     -0.000850
  H       3.696435      0.047390      0.023254
  C       4.758622      0.018620      0.009388
  N       5.891081     -0.014808     -0.013063
  H       0.018418      5.063370     -0.008419
  C       1.076662      5.053406      0.007540
  N       2.209262      5.047947      0.016141
  H       0.007987     -0.016717      5.056270
  C       1.066022      0.009268      5.047173
  N       2.198563      0.022716      5.042910
12
Coordinates from ORCA-job .\4hcn\4hcn E -371.502058869263
  H      -0.793815     -0.153218     -0.135901
  C       0.261097     -0.091176     -0.072950
  N       1.389172     -0.030066     -0.011009
  H       3.713612      0.040912      0.015445
  C       4.774895      0.011221      0.000128
  N       5.906814     -0.023484     -0.021722
  H       0.014490      5.094667     -0.009207
  C       1.072066      5.083129     -0.004492
  N       2.204070      5.076615      0.005134
  H       0.003456     -0.012179      5.087027
  C       1.061077     -0.005836      5.076454
  N       2.193066      0.009416      5.071094
12
Coordinates from ORCA-job .\4hcn\4hcn E -371.502160966870
  H      -0.798973     -0.176541     -0.157810
  C       0.255067     -0.110781     -0.091346
  N       1.381270     -0.043735     -0.023699
  H       3.731547      0.032091      0.004920
  C       4.792300     -0.000677     -0.013204
  N       5.924541     -0.039104     -0.036035
  H       0.009502      5.147330     -0.032699
  C       1.066788      5.133072     -0.021509
  N       2.198721      5.124080     -0.011468
  H      -0.002322     -0.039190      5.139053
  C       1.054850     -0.021216      5.125768
  N       2.186710     -0.005330      5.118030
12
Coordinates from ORCA-job .\4hcn\4hcn E -371.502274542342
  H      -0.791220     -0.210094     -0.188589
  C       0.262179     -0.136743     -0.114832
  N       1.387422     -0.059304     -0.037203
  H       3.732489      0.026733     -0.003913
  C       4.793821     -0.010838     -0.025803
  N       5.925970     -0.055577     -0.051436
  H       0.005635      5.204566     -0.051768
  C       1.063466      5.187431     -0.040261
  N       2.195717      5.174777     -0.028831
  H      -0.007702     -0.058517      5.195309
  C       1.050033     -0.040271      5.179298
  N       2.182190     -0.022164      5.168031
12
Coordinates from ORCA-job .\4hcn\4hcn E -371.502384174820
  H      -0.781336     -0.245052     -0.221534
  C       0.271132     -0.162241     -0.138974
  N       1.395517     -0.072795     -0.050102
  H       3.729892      0.024037     -0.010351
  C       4.791305     -0.019830     -0.036449
  N       5.922865     -0.072301     -0.066433
  H       0.002903      5.263372     -0.073767
  C       1.060973      5.243004     -0.061213
  N       2.193200      5.225003     -0.048145
  H      -0.011507     -0.080887      5.253926
  C       1.046456     -0.061265      5.234790
  N       2.178600     -0.041045      5.218253
12
Coordinates from ORCA-job .\4hcn\4hcn E -371.502486752634
  H      -0.772222     -0.279449     -0.254686
  C       0.278658     -0.186084     -0.162488
  N       1.401105     -0.085261     -0.063228
  H       3.729430      0.021459     -0.016303
  C       4.790416     -0.029095     -0.046474
  N       5.921434     -0.089284     -0.081344
  H       0.000012      5.322412     -0.096783
  C       1.057959      5.298265     -0.082674
  N       2.190105      5.274528     -0.068018
  H      -0.014888     -0.103379      5.313325
  C       1.042971     -0.083045      5.290466
  N       2.175020     -0.061067      5.268208
12
Coordinates from ORCA-job .\4hcn\4hcn E -371.502589499934
  H      -0.768326     -0.312400     -0.287706
  C       0.280608     -0.206606     -0.184979
  N       1.401498     -0.093292     -0.075130
  H       3.732604      0.021800     -0.018385
  C       4.793228     -0.036852     -0.052933
  N       5.923398     -0.106332     -0.094523
  H      -0.002620      5.383952     -0.124463
  C       1.055242      5.354575     -0.109744
  N       2.187230      5.322362     -0.093137
  H      -0.016740     -0.132227      5.376011
  C       1.040980     -0.109082      5.347905
  N       2.172898     -0.085897      5.317083
12
Coordinates from ORCA-job .\4hcn\4hcn E -371.502690084058
  H      -0.761641     -0.346770     -0.321893
  C       0.284494     -0.226679     -0.207238
  N       1.402517     -0.099639     -0.086120
  H       3.733353      0.024010     -0.018526
  C       4.793091     -0.043949     -0.058496
  N       5.922377     -0.123665     -0.107696
  H      -0.004747      5.447935     -0.157449
  C       1.052610      5.411264     -0.136789
  N       2.184163      5.369885     -0.118393
  H      -0.017556     -0.159796      5.441217
  C       1.039907     -0.138528      5.405773
  N       2.171432     -0.114068      5.365611
12
Coordinates from ORCA-job .\4hcn\4hcn E -371.502791138380
  H      -0.755914     -0.381765     -0.358475
  C       0.286321     -0.243396     -0.229538
  N       1.400541     -0.099000     -0.095070
  H       3.733483      0.031536     -0.011688
  C       4.791946     -0.049102     -0.058655
  N       5.919761     -0.142336     -0.117794
  H      -0.006119      5.517376     -0.189306
  C       1.050872      5.469234     -0.175037
  N       2.181884      5.414852     -0.153718
  H      -0.015706     -0.198210      5.512215
  C       1.041009     -0.172069      5.465184
  N       2.171924     -0.147120      5.411884
12
Coordinates from ORCA-job .\4hcn\4hcn E -371.502893279855
  H      -0.755035     -0.416403     -0.394233
  C       0.281941     -0.254822     -0.248505
  N       1.391546     -0.087092     -0.097437
  H       3.734715      0.048622      0.006272
  C       4.791515     -0.049016     -0.051630
  N       5.916737     -0.160619     -0.124631
  H      -0.005440      5.595581     -0.244505
  C       1.050362      5.529276     -0.220930
  N       2.180317      5.455695     -0.196741
  H      -0.009527     -0.244630      5.592054
  C       1.046418     -0.220962      5.526603
  N       2.176450     -0.195630      5.453682
12
Coordinates from ORCA-job .\4hcn\4hcn E -371.502991771820
  H      -0.747597     -0.452379     -0.430473
  C       0.282905     -0.267558     -0.268104
  N       1.385332     -0.074047     -0.098334
  H       3.731817      0.066806      0.025665
  C       4.785953     -0.048846     -0.045331
  N       5.908224     -0.180224     -0.131464
  H      -0.004042      5.677283     -0.296938
  C       1.050113      5.589722     -0.269564
  N       2.178360      5.496726     -0.242325
  H      -0.002695     -0.293590      5.674477
  C       1.051657     -0.269895      5.587476
  N       2.179973     -0.244000      5.494914
12
Coordinates from ORCA-job .\4hcn\4hcn E -371.503079612385
  H      -0.737625     -0.489169     -0.467524
  C       0.284685     -0.277663     -0.286411
  N       1.377776     -0.053913     -0.094957
  H       3.726404      0.090533      0.051846
  C       4.776894     -0.045976     -0.035211
  N       5.894874     -0.200483     -0.136408
  H      -0.001085      5.764084     -0.354690
  C       1.050748      5.650914     -0.325136
  N       2.176828      5.533964     -0.294354
  H       0.006773     -0.349142      5.761807
  C       1.058752     -0.324784      5.648889
  N       2.184977     -0.298365      5.532148
12
Coordinates from ORCA-job .\4hcn\4hcn E -371.503151543986
  H      -0.724455     -0.524429     -0.502911
  C       0.288991     -0.288190     -0.304083
  N       1.371858     -0.036177     -0.091939
  H       3.720847      0.111425      0.074788
  C       4.767194     -0.044132     -0.027636
  N       5.880724     -0.220310     -0.143048
  H       0.001924      5.847377     -0.409110
  C       1.050997      5.710702     -0.377069
  N       2.174256      5.570645     -0.343093
  H       0.015301     -0.401645      5.845828
  C       1.064485     -0.376236      5.709136
  N       2.187877     -0.349031      5.569136
12
Coordinates from ORCA-job .\4hcn\4hcn E -371.503206753403
  H      -0.712127     -0.554654     -0.533820
  C       0.292846     -0.296986     -0.319224
  N       1.366399     -0.021816     -0.089918
  H       3.717572      0.127660      0.092832
  C       4.760017     -0.043703     -0.022087
  N       5.869139     -0.237315     -0.150172
  H       0.004275      5.918923     -0.455361
  C       1.050692      5.763432     -0.421126
  N       2.171173      5.602639     -0.384445
  H       0.022055     -0.446093      5.918557
  C       1.068616     -0.420016      5.762854
  N       2.189343     -0.392072      5.601909
12
Coordinates from ORCA-job .\4hcn\4hcn E -371.503253121191
  H      -0.699029     -0.581560     -0.562006
  C       0.297379     -0.304834     -0.332885
  N       1.361947     -0.009624     -0.088341
  H       3.715121      0.140819      0.107436
  C       4.753729     -0.044081     -0.018217
  N       5.858728     -0.252704     -0.158568
  H       0.006293      5.984196     -0.497179
  C       1.050089      5.812463     -0.460870
  N       2.167502      5.632244     -0.421917
  H       0.027557     -0.486431      5.985762
  C       1.071531     -0.459589      5.813656
  N       2.189154     -0.430899      5.633130
12
Coordinates from ORCA-job .\4hcn\4hcn E -371.503299280144
  H      -0.683765     -0.615009     -0.597569
  C       0.301171     -0.313020     -0.348990
  N       1.354337      0.008139     -0.084582
  H       3.712534      0.159157      0.127829
  C       4.746471     -0.043544     -0.011301
  N       5.845578     -0.270929     -0.168147
  H       0.010085      6.067316     -0.552693
  C       1.049882      5.873748     -0.513240
  N       2.162667      5.667558     -0.470952
  H       0.035997     -0.539742      6.071574
  C       1.075996     -0.511812      5.877446
  N       2.189046     -0.481861      5.670626
12
Coordinates from ORCA-job .\4hcn\4hcn E -371.503338897956
  H      -0.663940     -0.643500     -0.626726
  C       0.310506     -0.325295     -0.364442
  N       1.352151      0.013069     -0.085559
  H       3.714596      0.163261      0.133088
  C       4.743748     -0.049745     -0.016165
  N       5.838180     -0.288108     -0.185152
  H       0.009797      6.142690     -0.594168
  C       1.046479      5.933822     -0.553499
  N       2.155326      5.707921     -0.510126
  H       0.036570     -0.580675      6.149499
  C       1.073607     -0.552183      5.939981
  N       2.182980     -0.521257      5.713270
12
Coordinates from ORCA-job .\4hcn\4hcn E -371.503378410802
  H      -0.647247     -0.676241     -0.661066
  C       0.315792     -0.335453     -0.380790
  N       1.345870      0.026890     -0.082814
  H       3.711479      0.179089      0.149586
  C       4.736259     -0.049552     -0.012076
  N       5.824952     -0.305030     -0.195556
  H       0.014346      6.223945     -0.646731
  C       1.046326      5.993629     -0.602992
  N       2.150087      5.744748     -0.556215
  H       0.044615     -0.632027      6.233546
  C       1.076804     -0.601512      6.002421
  N       2.180718     -0.568487      5.752687
12
Coordinates from ORCA-job .\4hcn\4hcn E -371.503407080967
  H      -0.632033     -0.701896     -0.686696
  C       0.323027     -0.348296     -0.395207
  N       1.344500      0.027805     -0.085163
  H       3.711670      0.182307      0.152352
  C       4.733434     -0.054170     -0.016709
  N       5.818621     -0.318361     -0.208644
  H       0.015282      6.287396     -0.680768
  C       1.044195      6.044088     -0.635962
  N       2.144615      5.781578     -0.587698
  H       0.045957     -0.666337      6.298773
  C       1.075059     -0.634392      6.054604
  N       2.175671     -0.599723      5.791120
12
Coordinates from ORCA-job .\4hcn\4hcn E -371.503438163713
  H      -0.617715     -0.725039     -0.709240
  C       0.331554     -0.364241     -0.409793
  N       1.346385      0.019855     -0.090978
  H       3.713785      0.177579      0.145639
  C       4.733758     -0.061601     -0.027943
  N       5.817137     -0.329221     -0.224666
  H       0.014125      6.345586     -0.706424
  C       1.040837      6.092706     -0.661685
  N       2.139317      5.821918     -0.613156
  H       0.042787     -0.693525      6.359238
  C       1.069689     -0.660159      6.105412
  N       2.168341     -0.623858      5.833595
12
Coordinates from ORCA-job .\4hcn\4hcn E -371.503465249341
  H      -0.604857     -0.747409     -0.731262
  C       0.338149     -0.377791     -0.422670
  N       1.346228      0.015908     -0.093891
  H       3.715285      0.176162      0.142695
  C       4.733468     -0.066832     -0.036208
  N       5.814692     -0.338633     -0.238405
  H       0.014579      6.403920     -0.735965
  C       1.038506      6.139660     -0.690223
  N       2.134513      5.858604     -0.640950
  H       0.041666     -0.724148      6.419936
  C       1.065774     -0.688804      6.154596
  N       2.161995     -0.650636      5.872349
12
Coordinates from ORCA-job .\4hcn\4hcn E -371.503494210385
  H      -0.592855     -0.767306     -0.750877
  C       0.346039     -0.393441     -0.435348
  N       1.349713      0.004910     -0.099045
  H       3.716291      0.169133      0.132174
  C       4.734186     -0.073288     -0.049226
  N       5.815055     -0.344821     -0.254126
  H       0.014015      6.456077     -0.759147
  C       1.036081      6.184642     -0.713210
  N       2.130497      5.897531     -0.664069
  H       0.037443     -0.749830      6.475541
  C       1.059533     -0.711928      6.202863
  N       2.154003     -0.671678      5.914470
12
Coordinates from ORCA-job .\4hcn\4hcn E -371.503534689846
  H      -0.585530     -0.781932     -0.765267
  C       0.353710     -0.412508     -0.446067
  N       1.358050     -0.019109     -0.105981
  H       3.719410      0.150196      0.106474
  C       4.740384     -0.081683     -0.072285
  N       5.824651     -0.342053     -0.274089
  H       0.011661      6.501608     -0.773914
  C       1.033404      6.228269     -0.729363
  N       2.127972      5.941087     -0.682308
  H       0.026298     -0.769838      6.527169
  C       1.047790     -0.728549      6.252199
  N       2.142200     -0.685488      5.963430
12
Coordinates from ORCA-job .\4hcn\4hcn E -371.503591967868
  H      -0.590343     -0.780898     -0.765312
  C       0.359814     -0.435528     -0.450204
  N       1.376946     -0.068680     -0.115125
  H       3.725602      0.107511      0.050266
  C       4.756876     -0.091980     -0.113831
  N       5.852154     -0.317217     -0.299348
  H       0.006472      6.522570     -0.766511
  C       1.031294      6.259655     -0.726951
  N       2.129522      5.985230     -0.686066
  H       0.002146     -0.773372      6.560245
  C       1.026064     -0.727326      6.294767
  N       2.123454     -0.679964      6.018068
12
Coordinates from ORCA-job .\4hcn\4hcn E -371.503638209690
  H      -0.594473     -0.781320     -0.767144
  C       0.365723     -0.458735     -0.456679
  N       1.393861     -0.116654     -0.126981
  H       3.735193      0.065293     -0.003629
  C       4.774507     -0.104459     -0.153533
  N       5.878570     -0.297025     -0.323649
  H       0.000250      6.544584     -0.757685
  C       1.027948      6.293010     -0.724074
  N       2.128807      6.029568     -0.688874
  H      -0.020786     -0.774407      6.592881
  C       1.005461     -0.725430      6.337954
  N       2.104941     -0.674427      6.071413
12
Coordinates from ORCA-job .\4hcn\4hcn E -371.503685363024
  H      -0.594470     -0.786297     -0.775070
  C       0.370857     -0.477903     -0.465533
  N       1.403862     -0.150777     -0.137048
  H       3.746827      0.032783     -0.043139
  C       4.789902     -0.116072     -0.184259
  N       5.898772     -0.285268     -0.345346
  H      -0.004700      6.583223     -0.764201
  C       1.024044      6.336287     -0.735469
  N       2.125011      6.072933     -0.703853
  H      -0.037707     -0.787510      6.641019
  C       0.989260     -0.737677      6.390085
  N       2.088343     -0.683723      6.122814
12
Coordinates from ORCA-job .\4hcn\4hcn E -371.503724400060
  H      -0.592000     -0.792138     -0.783325
  C       0.376567     -0.494673     -0.474305
  N       1.412088     -0.178242     -0.145881
  H       3.756197      0.005644     -0.074522
  C       4.801738     -0.126146     -0.209548
  N       5.914240     -0.276604     -0.363625
  H      -0.008261      6.628455     -0.778701
  C       1.020359      6.381095     -0.752738
  N       2.120466      6.114314     -0.723690
  H      -0.050862     -0.807105      6.693901
  C       0.975755     -0.755577      6.441999
  N       2.073711     -0.699023      6.170436
12
Coordinates from ORCA-job .\4hcn\4hcn E -371.503758336402
  H      -0.593976     -0.790288     -0.785073
  C       0.381601     -0.511108     -0.480464
  N       1.424223     -0.213476     -0.156294
  H       3.765736     -0.029119     -0.114674
  C       4.815758     -0.135922     -0.239091
  N       5.933470     -0.258755     -0.380310
  H      -0.011986      6.665180     -0.786810
  C       1.016969      6.418861     -0.764051
  N       2.117277      6.152336     -0.738680
  H      -0.066519     -0.821940      6.740391
  C       0.959973     -0.767640      6.488688
  N       2.057474     -0.708128      6.216368
12
Coordinates from ORCA-job .\4hcn\4hcn E -371.503798940902
  H      -0.598882     -0.777079     -0.779400
  C       0.385031     -0.520376     -0.483269
  N       1.435795     -0.245595     -0.167517
  H       3.775694     -0.067493     -0.151204
  C       4.829152     -0.143380     -0.263097
  N       5.951685     -0.231638     -0.388155
  H      -0.013450      6.717050     -0.812300
  C       1.013813      6.462549     -0.791230
  N       2.112338      6.186371     -0.768037
  H      -0.078258     -0.852551      6.803264
  C       0.946038     -0.795278      6.542285
  N       2.041043     -0.732581      6.258660
12
Coordinates from ORCA-job .\4hcn\4hcn E -371.503838058556
  H      -0.598874     -0.771504     -0.778338
  C       0.391984     -0.533137     -0.489893
  N       1.450257     -0.278309     -0.182427
  H       3.778626     -0.100599     -0.182870
  C       4.835260     -0.150985     -0.282842
  N       5.961543     -0.210851     -0.393457
  H      -0.013998      6.765754     -0.833401
  C       1.011215      6.503815     -0.813374
  N       2.107923      6.222945     -0.791393
  H      -0.086777     -0.878162      6.858883
  C       0.934959     -0.817274      6.589425
  N       2.027881     -0.751692      6.299688
12
Coordinates from ORCA-job .\4hcn\4hcn E -371.503897962973
  H      -0.616659     -0.723797     -0.746531
  C       0.390479     -0.525331     -0.487019
  N       1.466913     -0.314458     -0.210993
  H       3.778229     -0.149034     -0.208508
  C       4.838290     -0.149768     -0.282107
  N       5.968884     -0.154808     -0.361754
  H      -0.006862      6.835409     -0.891486
  C       1.010805      6.544760     -0.866956
  N       2.101436      6.241620     -0.840469
  H      -0.081188     -0.935902      6.937231
  C       0.931861     -0.869201      6.636761
  N       2.017811     -0.799489      6.321830
12
Coordinates from ORCA-job .\4hcn\4hcn E -371.503952920280
  H      -0.634154     -0.682810     -0.721896
  C       0.382843     -0.510371     -0.488122
  N       1.469760     -0.328338     -0.239954
  H       3.775037     -0.174245     -0.203895
  C       4.834850     -0.142311     -0.258675
  N       5.965856     -0.111854     -0.318645
  H       0.005985      6.925665     -0.980088
  C       1.012423      6.597513     -0.944836
  N       2.093172      6.259060     -0.907216
  H      -0.060638     -1.017205      7.031986
  C       0.940009     -0.944863      6.691796
  N       2.014858     -0.870241      6.339544
12
Coordinates from ORCA-job .\4hcn\4hcn E -371.503993965542
  H      -0.669651     -0.611612     -0.671077
  C       0.367221     -0.493780     -0.484009
  N       1.476607     -0.371124     -0.285995
  H       3.784301     -0.227134     -0.224656
  C       4.844620     -0.137072     -0.241195
  N       5.973503     -0.043406     -0.263164
  H       0.015499      6.982039     -1.044809
  C       1.013391      6.630244     -1.000537
  N       2.085298      6.264982     -0.952969
  H      -0.045186     -1.075656      7.094719
  C       0.945196     -0.998755      6.727734
  N       2.009200     -0.918725      6.345958
12
Coordinates from ORCA-job .\4hcn\4hcn E -371.504073454035
  H      -0.674052     -0.628179     -0.686886
  C       0.360791     -0.500769     -0.500406
  N       1.466235     -0.366250     -0.302265
  H       3.781833     -0.212622     -0.202768
  C       4.841763     -0.136650     -0.222886
  N       5.971468     -0.057884     -0.252613
  H       0.019993      7.033228     -1.088923
  C       1.014522      6.674243     -1.037162
  N       2.080578      6.293386     -0.981262
  H      -0.031573     -1.111941      7.140118
  C       0.955342     -1.034508      6.765761
  N       2.013101     -0.952053      6.369292
12
Coordinates from ORCA-job .\4hcn\4hcn E -371.504134974831
  H      -0.687999     -0.609180     -0.672046
  C       0.352681     -0.499619     -0.510153
  N       1.463878     -0.382674     -0.337464
  H       3.777936     -0.224166     -0.188228
  C       4.835988     -0.132887     -0.195319
  N       5.964700     -0.036448     -0.212301
  H       0.032314      7.122577     -1.172811
  C       1.016887      6.739015     -1.108657
  N       2.070383      6.327342     -1.039161
  H      -0.008427     -1.185751      7.222026
  C       0.968202     -1.103569      6.821671
  N       2.013456     -1.014641      6.392445
12
Coordinates from ORCA-job .\4hcn\4hcn E -371.504189953718
  H      -0.701011     -0.604448     -0.665448
  C       0.344713     -0.507201     -0.529375
  N       1.460966     -0.401517     -0.383713
  H       3.768555     -0.224029     -0.165980
  C       4.826497     -0.131200     -0.163651
  N       5.955371     -0.031291     -0.169938
  H       0.043371      7.205866     -1.248680
  C       1.019276      6.804196     -1.169911
  N       2.060867      6.367912     -1.085478
  H       0.017672     -1.248761      7.291620
  C       0.985439     -1.162132      6.872331
  N       2.018283     -1.067392      6.418222
12
Coordinates from ORCA-job .\4hcn\4hcn E -371.504234149266
  H      -0.705462     -0.593739     -0.656470
  C       0.343113     -0.509198     -0.536854
  N       1.462911     -0.417762     -0.408956
  H       3.764191     -0.233989     -0.159938
  C       4.820926     -0.128008     -0.149821
  N       5.948254     -0.013997     -0.145093
  H       0.055612      7.293247     -1.322937
  C       1.020139      6.865318     -1.234307
  N       2.051256      6.404643     -1.139897
  H       0.035241     -1.318484      7.375649
  C       0.991044     -1.224716      6.929096
  N       2.012777     -1.123314      6.449529
12
Coordinates from ORCA-job .\4hcn\4hcn E -371.504277807801
  H      -0.701496     -0.610642     -0.665822
  C       0.346991     -0.524926     -0.547798
  N       1.466999     -0.433845     -0.422211
  H       3.762637     -0.236578     -0.161417
  C       4.820121     -0.131458     -0.153039
  N       5.947712     -0.018842     -0.146568
  H       0.061313      7.367163     -1.367799
  C       1.018310      6.923820     -1.275204
  N       2.043163      6.451757     -1.177074
  H       0.040816     -1.363445      7.443926
  C       0.988961     -1.264253      6.982265
  N       2.004474     -1.158750      6.490742
12
Coordinates from ORCA-job .\4hcn\4hcn E -371.504320362477
  H      -0.699853     -0.629381     -0.676696
  C       0.348642     -0.539494     -0.558800
  N       1.468953     -0.445643     -0.434151
  H       3.762267     -0.232323     -0.158509
  C       4.820830     -0.133424     -0.153544
  N       5.949190     -0.028546     -0.149655
  H       0.067517      7.440998     -1.414395
  C       1.016790      6.982533     -1.317581
  N       2.034290      6.495777     -1.214923
  H       0.047858     -1.409329      7.511980
  C       0.987900     -1.305505      7.035950
  N       1.995614     -1.195663      6.530325
12
Coordinates from ORCA-job .\4hcn\4hcn E -371.504367704964
  H      -0.692613     -0.657282     -0.693406
  C       0.353820     -0.556054     -0.566050
  N       1.472142     -0.450891     -0.431430
  H       3.764666     -0.222105     -0.158185
  C       4.824461     -0.136610     -0.162823
  N       5.954160     -0.047279     -0.169672
  H       0.072057      7.514293     -1.454581
  C       1.014283      7.042178     -1.356919
  N       2.024287      6.540637     -1.252792
  H       0.049120     -1.451680      7.580684
  C       0.981859     -1.344472      7.092328
  N       1.981757     -1.230733      6.572846
12
Coordinates from ORCA-job .\4hcn\4hcn E -371.504421247506
  H      -0.683652     -0.681364     -0.702812
  C       0.360142     -0.566395     -0.563595
  N       1.475923     -0.445744     -0.415620
  H       3.768528     -0.202765     -0.152048
  C       4.829501     -0.137299     -0.170968
  N       5.960419     -0.070508     -0.195298
  H       0.079708      7.597814     -1.506798
  C       1.011415      7.105061     -1.408070
  N       2.009381      6.579470     -1.302035
  H       0.052399     -1.506282      7.657933
  C       0.974403     -1.395403      7.150705
  N       1.961834     -1.276586      6.608606
12
Coordinates from ORCA-job .\4hcn\4hcn E -371.504475223000
  H      -0.667684     -0.701929     -0.707493
  C       0.372097     -0.571792     -0.552114
  N       1.483379     -0.432718     -0.385540
  H       3.773990     -0.181640     -0.148763
  C       4.835627     -0.138850     -0.185688
  N       5.967112     -0.096866     -0.231641
  H       0.087785      7.683544     -1.560829
  C       1.006863      7.167013     -1.462544
  N       1.990522      6.614572     -1.356493
  H       0.053037     -1.564493      7.739165
  C       0.962280     -1.450247      7.209634
  N       1.934992     -1.326595      6.642305
12
Coordinates from ORCA-job .\4hcn\4hcn E -371.504530990495
  H      -0.652519     -0.702414     -0.695072
  C       0.384846     -0.566012     -0.530555
  N       1.492837     -0.417193     -0.352737
  H       3.782735     -0.167984     -0.147914
  C       4.843949     -0.140482     -0.199155
  N       5.975004     -0.114783     -0.262490
  H       0.098573      7.776614     -1.629717
  C       1.000746      7.230336     -1.529934
  N       1.965725      6.645004     -1.422209
  H       0.056855     -1.636812      7.828837
  C       0.948849     -1.517869      7.270068
  N       1.902398     -1.388405      6.670877
12
Coordinates from ORCA-job .\4hcn\4hcn E -371.504583145191
  H      -0.623028     -0.699635     -0.667474
  C       0.408112     -0.545473     -0.478476
  N       1.509030     -0.373543     -0.273130
  H       3.806169     -0.140184     -0.152476
  C       4.866930     -0.148225     -0.234091
  N       5.995889     -0.160805     -0.332992
  H       0.104722      7.858839     -1.685697
  C       0.986204      7.279152     -1.590387
  N       1.927923      6.657946     -1.488500
  H       0.048319     -1.701349      7.905770
  C       0.919663     -1.579422      7.315041
  N       1.850068     -1.447301      6.682413
