! HF 6-31G* OPT

* xyz 0 1
H    -1.0000   0.0000   0.0000
C     0.0000   0.0000   0.0000
N     1.2000   0.0000   0.0000
H     4.0000   0.0000   0.0000
C     5.0000   0.0000   0.0000
N     6.2000   0.0000   0.0000
H     0.0000   5.0000   0.0000
C     1.0000   5.0000   0.0000
N     2.2000   5.0000   0.0000
H     0.0000   0.0000   5.0000
C     1.0000   0.0000   5.0000
N     2.2000   0.0000   5.0000
*